7gp9-a
     RDKit          3D

 16 17  0  0  0  0  0  0  0  0999 V2000
    0.6840   -0.0070   28.3420 C   0  0  0  0  0  0  0  0  0  0  0  0
    0.3670    1.2690   27.9040 C   0  0  0  0  0  0  0  0  0  0  0  0
   -0.8920    1.4700   27.3700 C   0  0  0  0  0  0  0  0  0  0  0  0
   -1.7910    0.4380   27.2630 C   0  0  0  0  0  0  0  0  0  0  0  0
   -1.4910   -0.8250   27.7220 C   0  0  0  0  0  0  0  0  0  0  0  0
   -0.9470   -2.9450   29.6400 N   0  0  0  0  0  0  0  0  0  0  0  0
   -2.1700   -0.3300   31.4160 C   0  0  0  0  0  0  0  0  0  0  0  0
    0.3340   -3.3310   31.7260 O   0  0  0  0  0  0  0  0  0  0  0  0
   -0.8360   -1.0060   31.6160 C   0  0  0  0  0  0  0  0  0  0  0  0
    0.1310   -2.4250   28.7870 C   0  0  0  0  0  0  0  0  0  0  0  0
   -0.2320   -1.0560   28.2710 C   0  0  0  0  0  0  0  0  0  0  0  0
   -2.7670    2.2810   26.4600 C   0  0  0  0  0  0  0  0  0  0  0  0
   -2.1420   -3.2780   31.7870 O   0  0  0  0  0  0  0  0  0  0  0  0
   -2.9180    0.8630   26.5970 O   0  0  0  0  0  0  0  0  0  0  0  0
   -1.4630    2.6420   26.9260 O   0  0  0  0  0  0  0  0  0  0  0  0
   -0.9030   -2.7580   31.2800 S   0  0  1  0  0  0  0  0  0  0  0  0
  2  1  2  0
  3  2  1  0
  4  3  2  0
  5  4  1  0
  9  7  1  0
 10  6  1  0
 11 10  1  0
 11  5  2  0
 11  1  1  0
 14 12  1  0
 14  4  1  0
 15 12  1  0
 15  3  1  0
 16 13  2  0
 16  9  1  6
 16  8  2  0
 16  6  1  0
M  END
>  <id>  (1) 
13

>  <inchikey>  (1) 
UKPLBUIFSDRLEZ-UHFFFAOYSA-N

>  <alias>  (1) 
7gp9-a

>  <smiles>  (1) 
CCS(=O)(=O)NCc1ccc2c(c1)OCO2

>  <path>  (1) 
/opt/xchem-fragalysis-2/maxwin/BulkDock/TARGETS/D68EV3C/aligned_files/7gp9-a/7gp9-a.pdb

>  <distance_score>  (1) 
None

>  <energy_score>  (1) 
None

>  <compound>  (1) 
UKPLBUIFSDRLEZ-UHFFFAOYSA-N

>  <compound_id>  (1) 
12

>  <target>  (1) 
D68EV3C

$$$$
7goy-a
     RDKit          3D

 14 14  0  0  0  0  0  0  0  0999 V2000
   -1.1070    0.0340   31.3590 N   0  0  0  0  0  0  0  0  0  0  0  0
   -1.8670   -0.9920   31.0400 C   0  0  0  0  0  0  0  0  0  0  0  0
   -1.7140   -1.3620   29.6890 C   0  0  0  0  0  0  0  0  0  0  0  0
   -0.8050   -0.5060   29.1970 C   0  0  0  0  0  0  0  0  0  0  0  0
   -0.1370   -0.3500   27.8790 C   0  0  0  0  0  0  0  0  0  0  0  0
   -3.0260   -0.8940   33.1310 N   0  0  0  0  0  0  0  0  0  0  0  0
   -7.2220   -0.9230   35.3990 C   0  0  0  0  0  0  0  0  0  0  0  0
   -5.7760   -0.9880   35.4310 O   0  0  0  0  0  0  0  0  0  0  0  0
   -5.1420   -0.6870   34.3080 C   0  0  0  0  0  0  0  0  0  0  0  0
   -3.8330   -1.4120   34.2150 C   0  0  0  0  0  0  0  0  0  0  0  0
   -2.7340   -1.6350   32.0570 C   0  0  0  0  0  0  0  0  0  0  0  0
   -5.5530    0.0630   33.5040 O   0  0  0  0  0  0  0  0  0  0  0  0
   -3.1480   -2.7910   31.9080 O   0  0  0  0  0  0  0  0  0  0  0  0
   -0.4170    0.3530   30.1590 O   0  0  0  0  0  0  0  0  0  0  0  0
  2  1  2  0
  3  2  1  0
  4  3  2  0
  5  4  1  0
  8  7  1  0
  9  8  1  0
 10  9  1  0
 10  6  1  0
 11  2  1  0
 11  6  1  0
 12  9  2  0
 13 11  2  0
 14  4  1  0
 14  1  1  0
M  END
>  <id>  (2) 
59

>  <inchikey>  (2) 
FPAQMEYCJIMDCC-UHFFFAOYSA-N

>  <alias>  (2) 
7goy-a

>  <smiles>  (2) 
COC(=O)CNC(=O)c1cc(C)on1

>  <path>  (2) 
/opt/xchem-fragalysis-2/maxwin/BulkDock/TARGETS/D68EV3C/aligned_files/7goy-a/7goy-a.pdb

>  <distance_score>  (2) 
None

>  <energy_score>  (2) 
None

>  <compound>  (2) 
FPAQMEYCJIMDCC-UHFFFAOYSA-N

>  <compound_id>  (2) 
49

>  <target>  (2) 
D68EV3C

$$$$
