B0525a
     RDKit          3D

 22 24  0  0  0  0  0  0  0  0999 V2000
   -0.3610   -6.6630   32.1840 N   0  0  0  0  0  0  0  0  0  0  0  0
   -0.2440   -4.2140   31.9860 C   0  0  0  0  0  0  0  0  0  0  0  0
   -1.4560   -4.1850   31.8380 O   0  0  0  0  0  0  0  0  0  0  0  0
    0.4400   -5.4840   32.4920 C   0  0  0  0  0  0  0  0  0  0  0  0
   -2.1000   -0.2260   27.3740 C   0  0  0  0  0  0  0  0  0  0  0  0
   -1.7300    1.1110   27.3890 C   0  0  0  0  0  0  0  0  0  0  0  0
   -2.5480    2.1430   26.6500 C   0  0  0  0  0  0  0  0  0  0  0  0
   -0.6080    1.4680   28.1250 C   0  0  0  0  0  0  0  0  0  0  0  0
    0.1120    0.5200   28.8320 C   0  0  0  0  0  0  0  0  0  0  0  0
   -0.0270   -1.9490   31.0860 C   0  0  0  0  0  0  0  0  0  0  0  0
   -0.6120   -7.1850   30.9650 C   0  0  0  0  0  0  0  0  0  0  0  0
   -1.0810   -7.4110   33.0440 C   0  0  0  0  0  0  0  0  0  0  0  0
    2.0010   -3.0400   31.8030 C   0  0  0  0  0  0  0  0  0  0  0  0
    2.6410   -2.8870   30.4280 C   0  0  0  0  0  0  0  0  0  0  0  0
    1.9920   -1.7510   29.6320 C   0  0  0  0  0  0  0  0  0  0  0  0
    0.4650   -1.8700   29.6410 C   0  0  2  0  0  0  0  0  0  0  0  0
   -0.2690   -0.8150   28.8320 C   0  0  0  0  0  0  0  0  0  0  0  0
   -1.3860   -1.1710   28.0880 C   0  0  0  0  0  0  0  0  0  0  0  0
   -1.4450   -8.1850   31.0540 N   0  0  0  0  0  0  0  0  0  0  0  0
   -1.7500   -8.3340   32.4050 N   0  0  0  0  0  0  0  0  0  0  0  0
    0.5410   -3.1560   31.6870 N   0  0  0  0  0  0  0  0  0  0  0  0
   -1.7800    3.2800   26.2610 O   0  0  0  0  0  0  0  0  0  0  0  0
  3  2  2  0
  4  1  1  0
  4  2  1  0
  6  5  2  0
  7  6  1  0
  8  6  1  0
  9  8  2  0
 11  1  1  0
 12  1  1  0
 14 13  1  0
 15 14  1  0
 16 15  1  0
 16 10  1  0
 16 17  1  1
 17  9  1  0
 18 17  2  0
 18  5  1  0
 19 11  2  0
 20 19  1  0
 20 12  2  0
 21 13  1  0
 21 10  1  0
 21  2  1  0
 22  7  1  0
M  END
>  <id>  (1) 
141

>  <inchikey>  (1) 
QDVBRKQJPHDTEK-HNNXBMFYSA-N

>  <alias>  (1) 
B0525a

>  <smiles>  (1) 
O=C(Cn1cnnc1)N1CCC[C@H](c2ccc(CO)cc2)C1

>  <path>  (1) 
/opt/xchem-fragalysis-2/maxwin/BulkDock/TARGETS/D68EV3C/aligned_files/B0525a/B0525a_hippo.pdb

>  <distance_score>  (1) 
None

>  <energy_score>  (1) 
None

>  <compound>  (1) 
QDVBRKQJPHDTEK-UHFFFAOYSA-N

>  <compound_id>  (1) 
115

>  <target>  (1) 
D68EV3C

$$$$
B1020a
     RDKit          3D

 18 20  0  0  0  0  0  0  0  0999 V2000
    0.1430   -4.9380   37.1470 N   0  0  0  0  0  0  0  0  0  0  0  0
    1.0820   -4.2270   38.0380 C   0  0  0  0  0  0  0  0  0  0  0  0
    0.0410   -7.3940   37.2400 O   0  0  0  0  0  0  0  0  0  0  0  0
    0.3140   -3.3090   38.9720 C   0  0  0  0  0  0  0  0  0  0  0  0
   -1.7630   -3.5340   37.7390 C   0  0  0  0  0  0  0  0  0  0  0  0
   -1.2380   -4.9530   37.6610 C   0  0  0  0  0  0  0  0  0  0  0  0
    0.4380   -5.2370   34.1400 C   0  0  0  0  0  0  0  0  0  0  0  0
    0.8470   -5.8700   32.8160 C   0  0  0  0  0  0  0  0  0  0  0  0
   -0.2480   -6.7770   32.3460 C   0  0  0  0  0  0  0  0  0  0  0  0
   -1.1180   -7.3780   33.1870 C   0  0  0  0  0  0  0  0  0  0  0  0
   -1.1330   -7.1170   34.6590 C   0  0  0  0  0  0  0  0  0  0  0  0
   -0.7520   -2.5970   38.2570 N   0  0  0  0  0  0  0  0  0  0  0  0
    0.0060   -6.2800   35.0920 N   0  0  0  0  0  0  0  0  0  0  0  0
   -0.5190   -7.1920   31.0800 N   0  0  0  0  0  0  0  0  0  0  0  0
   -1.5200   -8.0470   31.1220 N   0  0  0  0  0  0  0  0  0  0  0  0
   -1.8880   -8.1640   32.4110 N   0  0  0  0  0  0  0  0  0  0  0  0
    2.0780   -6.2400   36.4020 O   0  0  0  0  0  0  0  0  0  0  0  0
    0.6680   -6.3230   36.5450 S   0  0  1  0  0  0  0  0  0  0  0  0
  2  1  1  0
  4  2  1  0
  6  5  1  0
  6  1  1  0
  8  7  1  0
  9  8  1  0
 10  9  2  0
 11 10  1  0
 12  5  1  0
 12  4  1  0
 13 11  1  0
 13  7  1  0
 14  9  1  0
 15 14  2  0
 16 15  1  0
 16 10  1  0
 18 17  2  0
 18 13  1  6
 18  3  2  0
 18  1  1  0
M  END
>  <id>  (2) 
168

>  <inchikey>  (2) 
RMTPRUDWXABPBE-UHFFFAOYSA-N

>  <alias>  (2) 
B1020a

>  <smiles>  (2) 
O=S(=O)(N1CCNCC1)N1CCc2nn[nH]c2C1

>  <path>  (2) 
/opt/xchem-fragalysis-2/maxwin/BulkDock/TARGETS/D68EV3C/aligned_files/B1020a/B1020a.pdb

>  <distance_score>  (2) 
None

>  <energy_score>  (2) 
None

>  <compound>  (2) 
RMTPRUDWXABPBE-UHFFFAOYSA-N

>  <compound_id>  (2) 
131

>  <target>  (2) 
D68EV3C

$$$$
