7gp9-a
     RDKit          3D

 16 17  0  0  0  0  0  0  0  0999 V2000
    0.6840   -0.0070   28.3420 C   0  0  0  0  0  0  0  0  0  0  0  0
    0.3670    1.2690   27.9040 C   0  0  0  0  0  0  0  0  0  0  0  0
   -0.8920    1.4700   27.3700 C   0  0  0  0  0  0  0  0  0  0  0  0
   -1.7910    0.4380   27.2630 C   0  0  0  0  0  0  0  0  0  0  0  0
   -1.4910   -0.8250   27.7220 C   0  0  0  0  0  0  0  0  0  0  0  0
   -0.9470   -2.9450   29.6400 N   0  0  0  0  0  0  0  0  0  0  0  0
   -2.1700   -0.3300   31.4160 C   0  0  0  0  0  0  0  0  0  0  0  0
    0.3340   -3.3310   31.7260 O   0  0  0  0  0  0  0  0  0  0  0  0
   -0.8360   -1.0060   31.6160 C   0  0  0  0  0  0  0  0  0  0  0  0
    0.1310   -2.4250   28.7870 C   0  0  0  0  0  0  0  0  0  0  0  0
   -0.2320   -1.0560   28.2710 C   0  0  0  0  0  0  0  0  0  0  0  0
   -2.7670    2.2810   26.4600 C   0  0  0  0  0  0  0  0  0  0  0  0
   -2.1420   -3.2780   31.7870 O   0  0  0  0  0  0  0  0  0  0  0  0
   -2.9180    0.8630   26.5970 O   0  0  0  0  0  0  0  0  0  0  0  0
   -1.4630    2.6420   26.9260 O   0  0  0  0  0  0  0  0  0  0  0  0
   -0.9030   -2.7580   31.2800 S   0  0  1  0  0  0  0  0  0  0  0  0
  2  1  2  0
  3  2  1  0
  4  3  2  0
  5  4  1  0
  9  7  1  0
 10  6  1  0
 11 10  1  0
 11  5  2  0
 11  1  1  0
 14 12  1  0
 14  4  1  0
 15 12  1  0
 15  3  1  0
 16 13  2  0
 16  9  1  6
 16  8  2  0
 16  6  1  0
M  END
>  <id>  (1) 
13

>  <inchikey>  (1) 
UKPLBUIFSDRLEZ-UHFFFAOYSA-N

>  <alias>  (1) 
7gp9-a

>  <smiles>  (1) 
CCS(=O)(=O)NCc1ccc2c(c1)OCO2

>  <path>  (1) 
/opt/xchem-fragalysis-2/maxwin/BulkDock/TARGETS/D68EV3C/aligned_files/7gp9-a/7gp9-a.pdb

>  <distance_score>  (1) 
None

>  <energy_score>  (1) 
None

>  <compound>  (1) 
UKPLBUIFSDRLEZ-UHFFFAOYSA-N

>  <compound_id>  (1) 
12

>  <target>  (1) 
D68EV3C

$$$$
7gol-a
     RDKit          3D

 14 15  0  0  0  0  0  0  0  0999 V2000
   -1.7000   -8.3990   32.7160 N   0  0  0  0  0  0  0  0  0  0  0  0
    1.3220   -3.7530   34.6870 C   0  0  1  0  0  0  0  0  0  0  0  0
    0.3530   -4.9150   34.4910 C   0  0  0  0  0  0  0  0  0  0  0  0
   -0.3190   -6.6240   32.8600 C   0  0  0  0  0  0  0  0  0  0  0  0
   -1.1370   -7.4710   33.5270 C   0  0  0  0  0  0  0  0  0  0  0  0
    0.4530   -5.5440   33.2850 N   0  0  0  0  0  0  0  0  0  0  0  0
    3.2290   -5.5530   34.5670 C   0  0  0  0  0  0  0  0  0  0  0  0
    1.3360   -3.3200   36.0620 O   0  0  0  0  0  0  0  0  0  0  0  0
    2.7860   -4.1060   34.3450 C   0  0  2  0  0  0  0  0  0  0  0  0
    3.5370   -3.1020   35.2100 C   0  0  0  0  0  0  0  0  0  0  0  0
    2.6910   -3.0530   36.4580 C   0  0  0  0  0  0  0  0  0  0  0  0
   -1.3710   -8.3240   31.4750 N   0  0  0  0  0  0  0  0  0  0  0  0
   -0.4580   -5.2260   35.3610 O   0  0  0  0  0  0  0  0  0  0  0  0
   -0.3040   -7.0570   31.1990 S   0  0  0  0  0  0  0  0  0  0  0  0
  2  3  1  1
  5  4  2  0
  5  1  1  0
  6  4  1  0
  6  3  1  0
  8  2  1  0
  9  7  1  1
  9  2  1  0
 10  9  1  0
 11 10  1  0
 11  8  1  0
 12  1  2  0
 13  3  2  0
 14 12  1  0
 14  4  1  0
M  END
>  <id>  (2) 
41

>  <inchikey>  (2) 
OAYBAYPFIGUPDE-VDTYLAMSSA-N

>  <alias>  (2) 
7gol-a

>  <smiles>  (2) 
C[C@@H]1CCO[C@@H]1C(=O)Nc1cnns1

>  <path>  (2) 
/opt/xchem-fragalysis-2/maxwin/BulkDock/TARGETS/D68EV3C/aligned_files/7gol-a/7gol-a.pdb

>  <distance_score>  (2) 
None

>  <energy_score>  (2) 
None

>  <compound>  (2) 
OAYBAYPFIGUPDE-UHFFFAOYSA-N

>  <compound_id>  (2) 
33

>  <target>  (2) 
D68EV3C

$$$$
