B0723a
     RDKit          3D

 23 26  0  0  0  0  0  0  0  0999 V2000
   -1.8400   -1.3080   28.1090 N   0  0  0  0  0  0  0  0  0  0  0  0
   -1.6700    3.6290   26.6710 C   0  0  0  0  0  0  0  0  0  0  0  0
   -2.5350    2.5990   26.3530 C   0  0  0  0  0  0  0  0  0  0  0  0
    0.0940   -6.0600   34.5500 C   0  0  0  0  0  0  0  0  0  0  0  0
   -0.7780   -7.0730   34.2440 C   0  0  0  0  0  0  0  0  0  0  0  0
   -1.0260   -7.3900   32.8840 C   0  0  0  0  0  0  0  0  0  0  0  0
   -0.7490   -7.2230   30.7210 C   0  0  0  0  0  0  0  0  0  0  0  0
   -0.3360    2.1050   27.9570 C   0  0  0  0  0  0  0  0  0  0  0  0
   -0.5760    3.3830   27.4750 C   0  0  0  0  0  0  0  0  0  0  0  0
   -2.2980    1.3180   26.8230 C   0  0  0  0  0  0  0  0  0  0  0  0
   -1.1960    1.0560   27.6360 C   0  0  0  0  0  0  0  0  0  0  0  0
   -0.9960   -0.2950   28.1940 C   0  0  0  0  0  0  0  0  0  0  0  0
    0.0660   -2.1540   28.8290 C   0  0  0  0  0  0  0  0  0  0  0  0
    1.0920   -3.1420   29.3600 C   0  0  0  0  0  0  0  0  0  0  0  0
    1.2550   -4.9300   31.0930 C   0  0  0  0  0  0  0  0  0  0  0  0
    0.5310   -5.6110   32.2120 C   0  0  0  0  0  0  0  0  0  0  0  0
    0.7430   -5.3220   33.5250 C   0  0  0  0  0  0  0  0  0  0  0  0
   -1.1810   -2.4710   28.5090 N   0  0  0  0  0  0  0  0  0  0  0  0
    0.3930   -4.0420   30.3020 N   0  0  0  0  0  0  0  0  0  0  0  0
   -1.7730   -8.3220   32.2980 N   0  0  0  0  0  0  0  0  0  0  0  0
   -1.5790   -8.2070   30.9230 N   0  0  0  0  0  0  0  0  0  0  0  0
   -0.3630   -6.6580   31.9050 N   0  0  0  0  0  0  0  0  0  0  0  0
    0.1960   -0.8140   28.6280 N   0  0  0  0  0  0  0  0  0  0  0  0
  3  2  2  0
  5  4  2  0
  6  5  1  0
  9  2  1  0
  9  8  2  0
 10  3  1  0
 11 10  2  0
 11  8  1  0
 12 11  1  0
 12  1  2  0
 14 13  1  0
 16 15  1  0
 17 16  2  0
 17  4  1  0
 18 13  2  0
 18  1  1  0
 19 15  1  0
 19 14  1  0
 20  6  2  0
 21 20  1  0
 21  7  2  0
 22 16  1  0
 22  7  1  0
 22  6  1  0
 23 13  1  0
 23 12  1  0
M  END
>  <id>  (1) 
147

>  <inchikey>  (1) 
XEHZOMCBCLBNAD-UHFFFAOYSA-N

>  <alias>  (1) 
B0723a

>  <smiles>  (1) 
c1ccc(-c2nnc(CNCc3cccc4nncn34)[nH]2)cc1

>  <path>  (1) 
/opt/xchem-fragalysis-2/maxwin/BulkDock/TARGETS/D68EV3C/aligned_files/B0723a/B0723a.pdb

>  <distance_score>  (1) 
None

>  <energy_score>  (1) 
None

>  <compound>  (1) 
XEHZOMCBCLBNAD-UHFFFAOYSA-N

>  <compound_id>  (1) 
119

>  <target>  (1) 
D68EV3C

$$$$
B1307a
     RDKit          3D

 18 19  0  0  0  0  0  0  0  0999 V2000
    0.7210   -6.0690   32.8940 N   0  0  0  0  0  0  0  0  0  0  0  0
   -1.2540   -7.8390   31.9980 C   0  0  0  0  0  0  0  0  0  0  0  0
   -2.0970   -8.5830   31.5020 O   0  0  0  0  0  0  0  0  0  0  0  0
   -1.0690   -7.5950   33.4070 C   0  0  0  0  0  0  0  0  0  0  0  0
   -0.0950   -6.7250   33.7650 C   0  0  0  0  0  0  0  0  0  0  0  0
    0.5610   -6.2810   31.6280 C   0  0  0  0  0  0  0  0  0  0  0  0
    1.3440   -5.5570   30.5860 C   0  0  0  0  0  0  0  0  0  0  0  0
    0.7260   -4.2070   30.2430 C   0  0  0  0  0  0  0  0  0  0  0  0
   -1.2030   -1.4920   30.3000 C   0  0  0  0  0  0  0  0  0  0  0  0
   -1.4390   -1.8200   28.9940 C   0  0  0  0  0  0  0  0  0  0  0  0
   -1.4180   -0.6800   28.1980 C   0  0  0  0  0  0  0  0  0  0  0  0
    0.4430   -3.3500   31.4090 N   0  0  0  0  0  0  0  0  0  0  0  0
   -1.1960    0.4780   28.8480 N   0  0  0  0  0  0  0  0  0  0  0  0
   -0.3920   -7.1460   31.1660 N   0  0  0  0  0  0  0  0  0  0  0  0
   -0.9490   -1.8990   32.8200 O   0  0  0  0  0  0  0  0  0  0  0  0
   -1.9800   -3.6830   31.4550 O   0  0  0  0  0  0  0  0  0  0  0  0
   -1.0040   -2.6490   31.6030 S   0  0  1  0  0  0  0  0  0  0  0  0
   -1.0060    0.1650   30.4570 S   0  0  0  0  0  0  0  0  0  0  0  0
  3  2  2  0
  4  2  1  0
  5  4  2  0
  5  1  1  0
  6  1  2  0
  7  6  1  0
  8  7  1  0
 10  9  2  0
 11 10  1  0
 12  8  1  0
 13 11  2  0
 14  6  1  0
 14  2  1  0
 17 16  2  0
 17 12  1  6
 17  9  1  0
 17 15  2  0
 18 13  1  0
 18  9  1  0
M  END
>  <id>  (2) 
186

>  <inchikey>  (2) 
CZVHMIQYFCZUOC-UHFFFAOYSA-N

>  <alias>  (2) 
B1307a

>  <smiles>  (2) 
O=c1ccnc(CCNS(=O)(=O)c2ccns2)[nH]1

>  <path>  (2) 
/opt/xchem-fragalysis-2/maxwin/BulkDock/TARGETS/D68EV3C/aligned_files/B1307a/B1307a.pdb

>  <distance_score>  (2) 
None

>  <energy_score>  (2) 
None

>  <compound>  (2) 
CZVHMIQYFCZUOC-UHFFFAOYSA-N

>  <compound_id>  (2) 
146

>  <target>  (2) 
D68EV3C

$$$$
