B1020a
     RDKit          3D

 18 20  0  0  0  0  0  0  0  0999 V2000
    0.1430   -4.9380   37.1470 N   0  0  0  0  0  0  0  0  0  0  0  0
    1.0820   -4.2270   38.0380 C   0  0  0  0  0  0  0  0  0  0  0  0
    0.0410   -7.3940   37.2400 O   0  0  0  0  0  0  0  0  0  0  0  0
    0.3140   -3.3090   38.9720 C   0  0  0  0  0  0  0  0  0  0  0  0
   -1.7630   -3.5340   37.7390 C   0  0  0  0  0  0  0  0  0  0  0  0
   -1.2380   -4.9530   37.6610 C   0  0  0  0  0  0  0  0  0  0  0  0
    0.4380   -5.2370   34.1400 C   0  0  0  0  0  0  0  0  0  0  0  0
    0.8470   -5.8700   32.8160 C   0  0  0  0  0  0  0  0  0  0  0  0
   -0.2480   -6.7770   32.3460 C   0  0  0  0  0  0  0  0  0  0  0  0
   -1.1180   -7.3780   33.1870 C   0  0  0  0  0  0  0  0  0  0  0  0
   -1.1330   -7.1170   34.6590 C   0  0  0  0  0  0  0  0  0  0  0  0
   -0.7520   -2.5970   38.2570 N   0  0  0  0  0  0  0  0  0  0  0  0
    0.0060   -6.2800   35.0920 N   0  0  0  0  0  0  0  0  0  0  0  0
   -0.5190   -7.1920   31.0800 N   0  0  0  0  0  0  0  0  0  0  0  0
   -1.5200   -8.0470   31.1220 N   0  0  0  0  0  0  0  0  0  0  0  0
   -1.8880   -8.1640   32.4110 N   0  0  0  0  0  0  0  0  0  0  0  0
    2.0780   -6.2400   36.4020 O   0  0  0  0  0  0  0  0  0  0  0  0
    0.6680   -6.3230   36.5450 S   0  0  1  0  0  0  0  0  0  0  0  0
  2  1  1  0
  4  2  1  0
  6  5  1  0
  6  1  1  0
  8  7  1  0
  9  8  1  0
 10  9  2  0
 11 10  1  0
 12  5  1  0
 12  4  1  0
 13 11  1  0
 13  7  1  0
 14  9  1  0
 15 14  2  0
 16 15  1  0
 16 10  1  0
 18 17  2  0
 18 13  1  6
 18  3  2  0
 18  1  1  0
M  END
>  <id>  (1) 
168

>  <inchikey>  (1) 
RMTPRUDWXABPBE-UHFFFAOYSA-N

>  <alias>  (1) 
B1020a

>  <smiles>  (1) 
O=S(=O)(N1CCNCC1)N1CCc2nn[nH]c2C1

>  <path>  (1) 
/opt/xchem-fragalysis-2/maxwin/BulkDock/TARGETS/D68EV3C/aligned_files/B1020a/B1020a.pdb

>  <distance_score>  (1) 
None

>  <energy_score>  (1) 
None

>  <compound>  (1) 
RMTPRUDWXABPBE-UHFFFAOYSA-N

>  <compound_id>  (1) 
131

>  <target>  (1) 
D68EV3C

$$$$
B1307a
     RDKit          3D

 18 19  0  0  0  0  0  0  0  0999 V2000
    0.7210   -6.0690   32.8940 N   0  0  0  0  0  0  0  0  0  0  0  0
   -1.2540   -7.8390   31.9980 C   0  0  0  0  0  0  0  0  0  0  0  0
   -2.0970   -8.5830   31.5020 O   0  0  0  0  0  0  0  0  0  0  0  0
   -1.0690   -7.5950   33.4070 C   0  0  0  0  0  0  0  0  0  0  0  0
   -0.0950   -6.7250   33.7650 C   0  0  0  0  0  0  0  0  0  0  0  0
    0.5610   -6.2810   31.6280 C   0  0  0  0  0  0  0  0  0  0  0  0
    1.3440   -5.5570   30.5860 C   0  0  0  0  0  0  0  0  0  0  0  0
    0.7260   -4.2070   30.2430 C   0  0  0  0  0  0  0  0  0  0  0  0
   -1.2030   -1.4920   30.3000 C   0  0  0  0  0  0  0  0  0  0  0  0
   -1.4390   -1.8200   28.9940 C   0  0  0  0  0  0  0  0  0  0  0  0
   -1.4180   -0.6800   28.1980 C   0  0  0  0  0  0  0  0  0  0  0  0
    0.4430   -3.3500   31.4090 N   0  0  0  0  0  0  0  0  0  0  0  0
   -1.1960    0.4780   28.8480 N   0  0  0  0  0  0  0  0  0  0  0  0
   -0.3920   -7.1460   31.1660 N   0  0  0  0  0  0  0  0  0  0  0  0
   -0.9490   -1.8990   32.8200 O   0  0  0  0  0  0  0  0  0  0  0  0
   -1.9800   -3.6830   31.4550 O   0  0  0  0  0  0  0  0  0  0  0  0
   -1.0040   -2.6490   31.6030 S   0  0  1  0  0  0  0  0  0  0  0  0
   -1.0060    0.1650   30.4570 S   0  0  0  0  0  0  0  0  0  0  0  0
  3  2  2  0
  4  2  1  0
  5  4  2  0
  5  1  1  0
  6  1  2  0
  7  6  1  0
  8  7  1  0
 10  9  2  0
 11 10  1  0
 12  8  1  0
 13 11  2  0
 14  6  1  0
 14  2  1  0
 17 16  2  0
 17 12  1  6
 17  9  1  0
 17 15  2  0
 18 13  1  0
 18  9  1  0
M  END
>  <id>  (2) 
186

>  <inchikey>  (2) 
CZVHMIQYFCZUOC-UHFFFAOYSA-N

>  <alias>  (2) 
B1307a

>  <smiles>  (2) 
O=c1ccnc(CCNS(=O)(=O)c2ccns2)[nH]1

>  <path>  (2) 
/opt/xchem-fragalysis-2/maxwin/BulkDock/TARGETS/D68EV3C/aligned_files/B1307a/B1307a.pdb

>  <distance_score>  (2) 
None

>  <energy_score>  (2) 
None

>  <compound>  (2) 
CZVHMIQYFCZUOC-UHFFFAOYSA-N

>  <compound_id>  (2) 
146

>  <target>  (2) 
D68EV3C

$$$$
