B0525a
     RDKit          3D

 22 24  0  0  0  0  0  0  0  0999 V2000
   -0.3610   -6.6630   32.1840 N   0  0  0  0  0  0  0  0  0  0  0  0
   -0.2440   -4.2140   31.9860 C   0  0  0  0  0  0  0  0  0  0  0  0
   -1.4560   -4.1850   31.8380 O   0  0  0  0  0  0  0  0  0  0  0  0
    0.4400   -5.4840   32.4920 C   0  0  0  0  0  0  0  0  0  0  0  0
   -2.1000   -0.2260   27.3740 C   0  0  0  0  0  0  0  0  0  0  0  0
   -1.7300    1.1110   27.3890 C   0  0  0  0  0  0  0  0  0  0  0  0
   -2.5480    2.1430   26.6500 C   0  0  0  0  0  0  0  0  0  0  0  0
   -0.6080    1.4680   28.1250 C   0  0  0  0  0  0  0  0  0  0  0  0
    0.1120    0.5200   28.8320 C   0  0  0  0  0  0  0  0  0  0  0  0
   -0.0270   -1.9490   31.0860 C   0  0  0  0  0  0  0  0  0  0  0  0
   -0.6120   -7.1850   30.9650 C   0  0  0  0  0  0  0  0  0  0  0  0
   -1.0810   -7.4110   33.0440 C   0  0  0  0  0  0  0  0  0  0  0  0
    2.0010   -3.0400   31.8030 C   0  0  0  0  0  0  0  0  0  0  0  0
    2.6410   -2.8870   30.4280 C   0  0  0  0  0  0  0  0  0  0  0  0
    1.9920   -1.7510   29.6320 C   0  0  0  0  0  0  0  0  0  0  0  0
    0.4650   -1.8700   29.6410 C   0  0  2  0  0  0  0  0  0  0  0  0
   -0.2690   -0.8150   28.8320 C   0  0  0  0  0  0  0  0  0  0  0  0
   -1.3860   -1.1710   28.0880 C   0  0  0  0  0  0  0  0  0  0  0  0
   -1.4450   -8.1850   31.0540 N   0  0  0  0  0  0  0  0  0  0  0  0
   -1.7500   -8.3340   32.4050 N   0  0  0  0  0  0  0  0  0  0  0  0
    0.5410   -3.1560   31.6870 N   0  0  0  0  0  0  0  0  0  0  0  0
   -1.7800    3.2800   26.2610 O   0  0  0  0  0  0  0  0  0  0  0  0
  3  2  2  0
  4  1  1  0
  4  2  1  0
  6  5  2  0
  7  6  1  0
  8  6  1  0
  9  8  2  0
 11  1  1  0
 12  1  1  0
 14 13  1  0
 15 14  1  0
 16 15  1  0
 16 10  1  0
 16 17  1  1
 17  9  1  0
 18 17  2  0
 18  5  1  0
 19 11  2  0
 20 19  1  0
 20 12  2  0
 21 13  1  0
 21 10  1  0
 21  2  1  0
 22  7  1  0
M  END
>  <id>  (1) 
141

>  <inchikey>  (1) 
QDVBRKQJPHDTEK-HNNXBMFYSA-N

>  <alias>  (1) 
B0525a

>  <smiles>  (1) 
O=C(Cn1cnnc1)N1CCC[C@H](c2ccc(CO)cc2)C1

>  <path>  (1) 
/opt/xchem-fragalysis-2/maxwin/BulkDock/TARGETS/D68EV3C/aligned_files/B0525a/B0525a_hippo.pdb

>  <distance_score>  (1) 
None

>  <energy_score>  (1) 
None

>  <compound>  (1) 
QDVBRKQJPHDTEK-UHFFFAOYSA-N

>  <compound_id>  (1) 
115

>  <target>  (1) 
D68EV3C

$$$$
B1368a
     RDKit          3D

 19 20  0  0  0  0  0  0  0  0999 V2000
   -0.3010   -7.1750   31.2650 N   0  0  0  0  0  0  0  0  0  0  0  0
   -0.2100   -6.6240   35.4830 C   0  0  0  0  0  0  0  0  0  0  0  0
   -2.0450   -8.5730   31.4320 O   0  0  0  0  0  0  0  0  0  0  0  0
   -0.2800   -6.8570   34.0040 C   0  0  0  0  0  0  0  0  0  0  0  0
   -0.7620   -0.2170   30.7000 C   0  0  0  0  0  0  0  0  0  0  0  0
   -1.2020   -7.7250   33.4440 C   0  0  0  0  0  0  0  0  0  0  0  0
   -1.1630   -7.8420   32.0380 C   0  0  0  0  0  0  0  0  0  0  0  0
    0.5220   -6.3500   31.9200 C   0  0  0  0  0  0  0  0  0  0  0  0
    1.3950   -5.4620   31.0850 C   0  0  0  0  0  0  0  0  0  0  0  0
    1.4560   -4.0960   31.7680 C   0  0  0  0  0  0  0  0  0  0  0  0
   -1.5140   -1.9460   29.1550 C   0  0  0  0  0  0  0  0  0  0  0  0
   -1.1060   -0.6830   28.4020 C   0  0  0  0  0  0  0  0  0  0  0  0
   -0.1560    0.0250   29.3360 C   0  0  0  0  0  0  0  0  0  0  0  0
    0.5560   -3.1420   31.1130 N   0  0  0  0  0  0  0  0  0  0  0  0
   -1.2560   -1.6060   30.5740 N   0  0  0  0  0  0  0  0  0  0  0  0
    0.5860   -6.1690   33.2430 N   0  0  0  0  0  0  0  0  0  0  0  0
   -0.7690   -2.1440   32.9670 O   0  0  0  0  0  0  0  0  0  0  0  0
   -1.7960   -3.8550   31.5150 O   0  0  0  0  0  0  0  0  0  0  0  0
   -0.9200   -2.7400   31.6770 S   0  0  2  0  0  0  0  0  0  0  0  0
  4  2  1  0
  6  4  2  0
  7  3  1  0
  7  1  2  0
  7  6  1  0
  8  1  1  0
  9  8  1  0
 10  9  1  0
 12 11  1  0
 13 12  1  0
 13  5  1  0
 14 10  1  0
 15 11  1  0
 15  5  1  0
 16  8  2  0
 16  4  1  0
 19 18  2  0
 19 15  1  0
 19 14  1  6
 19 17  2  0
M  END
>  <id>  (2) 
190

>  <inchikey>  (2) 
MHXZCOWLEYXUSF-UHFFFAOYSA-N

>  <alias>  (2) 
B1368a

>  <smiles>  (2) 
Cc1cc(O)nc(CCNS(=O)(=O)N2CCCC2)n1

>  <path>  (2) 
/opt/xchem-fragalysis-2/maxwin/BulkDock/TARGETS/D68EV3C/aligned_files/B1368a/B1368a.pdb

>  <distance_score>  (2) 
None

>  <energy_score>  (2) 
None

>  <compound>  (2) 
MHXZCOWLEYXUSF-UHFFFAOYSA-N

>  <compound_id>  (2) 
148

>  <target>  (2) 
D68EV3C

$$$$
