7gqf-a
     RDKit          3D

 10 11  0  0  0  0  0  0  0  0999 V2000
   -1.4190   -8.1260   31.1110 N   0  0  0  0  0  0  0  0  0  0  0  0
   -0.2530   -6.8140   32.4920 N   0  0  0  0  0  0  0  0  0  0  0  0
    0.6230   -5.8280   34.4510 C   0  0  0  0  0  0  0  0  0  0  0  0
    0.6440   -5.9570   33.1050 C   0  0  0  0  0  0  0  0  0  0  0  0
    0.2560   -6.7270   30.1550 N   0  0  0  0  0  0  0  0  0  0  0  0
   -0.4570   -7.2170   31.1740 C   0  0  0  0  0  0  0  0  0  0  0  0
   -1.1810   -7.5560   33.2180 C   0  0  0  0  0  0  0  0  0  0  0  0
   -1.8830   -8.3430   32.4110 N   0  0  0  0  0  0  0  0  0  0  0  0
   -0.3160   -6.5540   35.2160 C   0  0  0  0  0  0  0  0  0  0  0  0
   -1.2030   -7.3980   34.6240 C   0  0  0  0  0  0  0  0  0  0  0  0
  4  2  1  0
  4  3  2  0
  6  5  1  0
  6  2  1  0
  6  1  2  0
  7  2  1  0
  8  1  1  0
  8  7  2  0
  9  3  1  0
 10  9  2  0
 10  7  1  0
M  END
>  <id>  (1) 
72

>  <inchikey>  (1) 
NCZQAIFOXJOCFI-UHFFFAOYSA-N

>  <alias>  (1) 
7gqf-a

>  <smiles>  (1) 
Nc1nnc2ccccn12

>  <path>  (1) 
/opt/xchem-fragalysis-2/maxwin/BulkDock/TARGETS/D68EV3C/aligned_files/7gqf-a/7gqf-a.pdb

>  <distance_score>  (1) 
None

>  <energy_score>  (1) 
None

>  <compound>  (1) 
NCZQAIFOXJOCFI-UHFFFAOYSA-N

>  <compound_id>  (1) 
58

>  <target>  (1) 
D68EV3C

$$$$
B0439a
     RDKit          3D

 21 23  0  0  0  0  0  0  0  0999 V2000
    4.2060   -2.6230   34.9930 N   0  0  0  0  0  0  0  0  0  0  0  0
    2.5070   -3.8810   36.6750 C   0  0  0  0  0  0  0  0  0  0  0  0
    4.9430   -3.2400   37.2620 O   0  0  0  0  0  0  0  0  0  0  0  0
    3.4540   -2.6970   33.7790 C   0  0  0  0  0  0  0  0  0  0  0  0
   -1.3780   -7.5220   33.2990 C   0  0  0  0  0  0  0  0  0  0  0  0
    0.3150   -5.6340   32.9380 C   0  0  0  0  0  0  0  0  0  0  0  0
    2.6610   -3.8030   33.4690 C   0  0  0  0  0  0  0  0  0  0  0  0
    3.4860   -1.6070   32.9150 C   0  0  0  0  0  0  0  0  0  0  0  0
    2.7320   -1.6240   31.7550 C   0  0  0  0  0  0  0  0  0  0  0  0
    1.9440   -2.7200   31.4490 C   0  0  0  0  0  0  0  0  0  0  0  0
    1.8970   -3.8200   32.3030 C   0  0  0  0  0  0  0  0  0  0  0  0
    1.0430   -4.9930   31.9870 C   0  0  0  0  0  0  0  0  0  0  0  0
    0.9320   -5.4580   30.6280 C   0  0  0  0  0  0  0  0  0  0  0  0
    0.1240   -6.4850   30.2790 C   0  0  0  0  0  0  0  0  0  0  0  0
   -0.6450   -7.1310   31.2770 C   0  0  0  0  0  0  0  0  0  0  0  0
   -1.5070   -8.1330   31.1960 N   0  0  0  0  0  0  0  0  0  0  0  0
   -1.9740   -8.3820   32.4820 N   0  0  0  0  0  0  0  0  0  0  0  0
   -1.5500   -7.4230   34.6210 N   0  0  0  0  0  0  0  0  0  0  0  0
   -0.5180   -6.6870   32.5940 N   0  0  0  0  0  0  0  0  0  0  0  0
    4.5690   -4.9910   35.5690 O   0  0  0  0  0  0  0  0  0  0  0  0
    4.1790   -3.7510   36.1660 S   0  0  2  0  0  0  0  0  0  0  0  0
  4  1  1  0
  7  4  2  0
  8  4  1  0
  9  8  2  0
 10  9  1  0
 11 10  2  0
 11  7  1  0
 12  6  2  0
 12 11  1  0
 13 12  1  0
 14 13  2  0
 15 14  1  0
 16 15  2  0
 17 16  1  0
 17  5  2  0
 18  5  1  0
 19 15  1  0
 19  6  1  0
 19  5  1  0
 21 20  2  0
 21  3  2  0
 21  2  1  1
 21  1  1  0
M  END
>  <id>  (2) 
129

>  <inchikey>  (2) 
POMKRPOCZAWFPL-UHFFFAOYSA-N

>  <alias>  (2) 
B0439a

>  <smiles>  (2) 
CS(=O)(=O)Nc1cccc(-c2ccc3nnc(N)n3c2)c1

>  <path>  (2) 
/opt/xchem-fragalysis-2/maxwin/BulkDock/TARGETS/D68EV3C/aligned_files/B0439a/B0439a.pdb

>  <distance_score>  (2) 
None

>  <energy_score>  (2) 
None

>  <compound>  (2) 
POMKRPOCZAWFPL-UHFFFAOYSA-N

>  <compound_id>  (2) 
106

>  <target>  (2) 
D68EV3C

$$$$
