7gp9-a
     RDKit          3D

 16 17  0  0  0  0  0  0  0  0999 V2000
    0.6840   -0.0070   28.3420 C   0  0  0  0  0  0  0  0  0  0  0  0
    0.3670    1.2690   27.9040 C   0  0  0  0  0  0  0  0  0  0  0  0
   -0.8920    1.4700   27.3700 C   0  0  0  0  0  0  0  0  0  0  0  0
   -1.7910    0.4380   27.2630 C   0  0  0  0  0  0  0  0  0  0  0  0
   -1.4910   -0.8250   27.7220 C   0  0  0  0  0  0  0  0  0  0  0  0
   -0.9470   -2.9450   29.6400 N   0  0  0  0  0  0  0  0  0  0  0  0
   -2.1700   -0.3300   31.4160 C   0  0  0  0  0  0  0  0  0  0  0  0
    0.3340   -3.3310   31.7260 O   0  0  0  0  0  0  0  0  0  0  0  0
   -0.8360   -1.0060   31.6160 C   0  0  0  0  0  0  0  0  0  0  0  0
    0.1310   -2.4250   28.7870 C   0  0  0  0  0  0  0  0  0  0  0  0
   -0.2320   -1.0560   28.2710 C   0  0  0  0  0  0  0  0  0  0  0  0
   -2.7670    2.2810   26.4600 C   0  0  0  0  0  0  0  0  0  0  0  0
   -2.1420   -3.2780   31.7870 O   0  0  0  0  0  0  0  0  0  0  0  0
   -2.9180    0.8630   26.5970 O   0  0  0  0  0  0  0  0  0  0  0  0
   -1.4630    2.6420   26.9260 O   0  0  0  0  0  0  0  0  0  0  0  0
   -0.9030   -2.7580   31.2800 S   0  0  1  0  0  0  0  0  0  0  0  0
  2  1  2  0
  3  2  1  0
  4  3  2  0
  5  4  1  0
  9  7  1  0
 10  6  1  0
 11 10  1  0
 11  5  2  0
 11  1  1  0
 14 12  1  0
 14  4  1  0
 15 12  1  0
 15  3  1  0
 16 13  2  0
 16  9  1  6
 16  8  2  0
 16  6  1  0
M  END
>  <id>  (1) 
13

>  <inchikey>  (1) 
UKPLBUIFSDRLEZ-UHFFFAOYSA-N

>  <alias>  (1) 
7gp9-a

>  <smiles>  (1) 
CCS(=O)(=O)NCc1ccc2c(c1)OCO2

>  <path>  (1) 
/opt/xchem-fragalysis-2/maxwin/BulkDock/TARGETS/D68EV3C/aligned_files/7gp9-a/7gp9-a.pdb

>  <distance_score>  (1) 
None

>  <energy_score>  (1) 
None

>  <compound>  (1) 
UKPLBUIFSDRLEZ-UHFFFAOYSA-N

>  <compound_id>  (1) 
12

>  <target>  (1) 
D68EV3C

$$$$
B1219a
     RDKit          3D

 20 23  0  0  0  0  0  0  0  0999 V2000
    2.4450   -3.5400   30.0940 N   0  0  0  0  0  0  0  0  0  0  0  0
   -0.3640   -1.1570   28.2900 C   0  0  0  0  0  0  0  0  0  0  0  0
    0.9420   -0.8350   27.9960 C   0  0  0  0  0  0  0  0  0  0  0  0
   -0.3530   -7.3690   31.1520 C   0  0  0  0  0  0  0  0  0  0  0  0
    0.2980   -2.9840   29.6280 C   0  0  0  0  0  0  0  0  0  0  0  0
   -0.7310   -2.2250   29.0790 C   0  0  0  0  0  0  0  0  0  0  0  0
    1.9540   -1.6110   28.5380 C   0  0  0  0  0  0  0  0  0  0  0  0
    1.6340   -2.6830   29.3670 C   0  0  0  0  0  0  0  0  0  0  0  0
    1.6340   -4.3110   30.7630 C   0  0  0  0  0  0  0  0  0  0  0  0
    0.9270   -6.0560   32.9080 C   0  0  0  0  0  0  0  0  0  0  0  0
    0.9330   -5.7320   34.2240 C   0  0  0  0  0  0  0  0  0  0  0  0
   -0.0590   -6.2760   35.0830 C   0  0  0  0  0  0  0  0  0  0  0  0
   -1.0270   -7.1150   34.6040 C   0  0  0  0  0  0  0  0  0  0  0  0
   -1.0530   -7.4400   33.2240 C   0  0  0  0  0  0  0  0  0  0  0  0
   -1.3490   -0.3480   27.8130 F   0  0  0  0  0  0  0  0  0  0  0  0
   -1.8590   -8.2010   32.4890 N   0  0  0  0  0  0  0  0  0  0  0  0
   -1.4010   -8.1450   31.1740 N   0  0  0  0  0  0  0  0  0  0  0  0
   -0.0720   -6.8940   32.4010 N   0  0  0  0  0  0  0  0  0  0  0  0
    0.3260   -4.0470   30.5310 N   0  0  0  0  0  0  0  0  0  0  0  0
    2.2130   -5.5520   31.8600 S   0  0  0  0  0  0  0  0  0  0  0  0
  3  2  2  0
  6  5  2  0
  6  2  1  0
  7  3  1  0
  8  7  2  0
  8  5  1  0
  8  1  1  0
  9  1  2  0
 11 10  2  0
 12 11  1  0
 13 12  2  0
 14 13  1  0
 15  2  1  0
 16 14  2  0
 17 16  1  0
 17  4  2  0
 18  4  1  0
 18 14  1  0
 18 10  1  0
 19  9  1  0
 19  5  1  0
 20 10  1  0
 20  9  1  0
M  END
>  <id>  (2) 
180

>  <inchikey>  (2) 
RAAZIUQROHXXRO-UHFFFAOYSA-N

>  <alias>  (2) 
B1219a

>  <smiles>  (2) 
Fc1ccc2nc(Sc3cccc4nncn34)[nH]c2c1

>  <path>  (2) 
/opt/xchem-fragalysis-2/maxwin/BulkDock/TARGETS/D68EV3C/aligned_files/B1219a/B1219a.pdb

>  <distance_score>  (2) 
None

>  <energy_score>  (2) 
None

>  <compound>  (2) 
RAAZIUQROHXXRO-UHFFFAOYSA-N

>  <compound_id>  (2) 
142

>  <target>  (2) 
D68EV3C

$$$$
