7gp9-a
     RDKit          3D

 16 17  0  0  0  0  0  0  0  0999 V2000
    0.6840   -0.0070   28.3420 C   0  0  0  0  0  0  0  0  0  0  0  0
    0.3670    1.2690   27.9040 C   0  0  0  0  0  0  0  0  0  0  0  0
   -0.8920    1.4700   27.3700 C   0  0  0  0  0  0  0  0  0  0  0  0
   -1.7910    0.4380   27.2630 C   0  0  0  0  0  0  0  0  0  0  0  0
   -1.4910   -0.8250   27.7220 C   0  0  0  0  0  0  0  0  0  0  0  0
   -0.9470   -2.9450   29.6400 N   0  0  0  0  0  0  0  0  0  0  0  0
   -2.1700   -0.3300   31.4160 C   0  0  0  0  0  0  0  0  0  0  0  0
    0.3340   -3.3310   31.7260 O   0  0  0  0  0  0  0  0  0  0  0  0
   -0.8360   -1.0060   31.6160 C   0  0  0  0  0  0  0  0  0  0  0  0
    0.1310   -2.4250   28.7870 C   0  0  0  0  0  0  0  0  0  0  0  0
   -0.2320   -1.0560   28.2710 C   0  0  0  0  0  0  0  0  0  0  0  0
   -2.7670    2.2810   26.4600 C   0  0  0  0  0  0  0  0  0  0  0  0
   -2.1420   -3.2780   31.7870 O   0  0  0  0  0  0  0  0  0  0  0  0
   -2.9180    0.8630   26.5970 O   0  0  0  0  0  0  0  0  0  0  0  0
   -1.4630    2.6420   26.9260 O   0  0  0  0  0  0  0  0  0  0  0  0
   -0.9030   -2.7580   31.2800 S   0  0  1  0  0  0  0  0  0  0  0  0
  2  1  2  0
  3  2  1  0
  4  3  2  0
  5  4  1  0
  9  7  1  0
 10  6  1  0
 11 10  1  0
 11  5  2  0
 11  1  1  0
 14 12  1  0
 14  4  1  0
 15 12  1  0
 15  3  1  0
 16 13  2  0
 16  9  1  6
 16  8  2  0
 16  6  1  0
M  END
>  <id>  (1) 
13

>  <inchikey>  (1) 
UKPLBUIFSDRLEZ-UHFFFAOYSA-N

>  <alias>  (1) 
7gp9-a

>  <smiles>  (1) 
CCS(=O)(=O)NCc1ccc2c(c1)OCO2

>  <path>  (1) 
/opt/xchem-fragalysis-2/maxwin/BulkDock/TARGETS/D68EV3C/aligned_files/7gp9-a/7gp9-a.pdb

>  <distance_score>  (1) 
None

>  <energy_score>  (1) 
None

>  <compound>  (1) 
UKPLBUIFSDRLEZ-UHFFFAOYSA-N

>  <compound_id>  (1) 
12

>  <target>  (1) 
D68EV3C

$$$$
B0839a
     RDKit          3D

 21 23  0  0  0  0  0  0  0  0999 V2000
    0.9490   -3.7130   24.9570 N   0  0  0  0  0  0  0  0  0  0  0  0
    1.5190   -3.3820   26.2410 C   0  0  0  0  0  0  0  0  0  0  0  0
    3.0290   -1.4910   25.9760 O   0  0  0  0  0  0  0  0  0  0  0  0
    2.8980   -2.8450   26.1470 C   0  0  0  0  0  0  0  0  0  0  0  0
    7.8970   -7.5790   30.0290 C   0  0  0  0  0  0  0  0  0  0  0  0
    7.4040   -6.2970   29.9070 C   0  0  0  0  0  0  0  0  0  0  0  0
    6.9100   -5.8500   28.6910 C   0  0  0  0  0  0  0  0  0  0  0  0
    6.9130   -6.6930   27.5790 C   0  0  0  0  0  0  0  0  0  0  0  0
    4.3700   -1.2980   25.9250 C   0  0  0  0  0  0  0  0  0  0  0  0
    4.1400   -3.3690   26.1850 C   0  0  0  0  0  0  0  0  0  0  0  0
    4.5660   -4.7800   26.3480 C   0  0  0  0  0  0  0  0  0  0  0  0
    6.4500   -6.2480   26.2570 C   0  0  0  0  0  0  0  0  0  0  0  0
    6.5350   -7.0900   25.2050 C   0  0  0  0  0  0  0  0  0  0  0  0
    7.4740   -8.8980   26.5280 C   0  0  0  0  0  0  0  0  0  0  0  0
    7.4130   -8.0020   27.7050 C   0  0  0  0  0  0  0  0  0  0  0  0
    7.8990   -8.4370   28.9390 C   0  0  0  0  0  0  0  0  0  0  0  0
    5.0770   -2.3610   26.0440 N   0  0  0  0  0  0  0  0  0  0  0  0
    5.8990   -5.0000   26.1320 N   0  0  0  0  0  0  0  0  0  0  0  0
    7.0210   -8.3530   25.3500 N   0  0  0  0  0  0  0  0  0  0  0  0
    3.7730   -5.6770   26.6460 O   0  0  0  0  0  0  0  0  0  0  0  0
    7.9110  -10.0450   26.5630 O   0  0  0  0  0  0  0  0  0  0  0  0
  2  1  1  0
  4  3  1  0
  4  2  1  0
  6  5  2  0
  7  6  1  0
  8  7  2  0
  9  3  1  0
 10  4  2  0
 11 10  1  0
 12  8  1  0
 13 12  2  0
 15 14  1  0
 15  8  1  0
 16 15  2  0
 16  5  1  0
 17 10  1  0
 17  9  2  0
 18 11  1  0
 18 12  1  0
 19 14  1  0
 19 13  1  0
 20 11  2  0
 21 14  2  0
M  END
>  <id>  (2) 
154

>  <inchikey>  (2) 
NJGXKVVNPAPYKZ-UHFFFAOYSA-N

>  <alias>  (2) 
B0839a

>  <smiles>  (2) 
NCc1ocnc1C(=O)Nc1c[nH]c(=O)c2ccccc12

>  <path>  (2) 
/opt/xchem-fragalysis-2/maxwin/BulkDock/TARGETS/D68EV3C/aligned_files/B0839a/B0839a_hippo.pdb

>  <distance_score>  (2) 
None

>  <energy_score>  (2) 
None

>  <compound>  (2) 
NJGXKVVNPAPYKZ-UHFFFAOYSA-N

>  <compound_id>  (2) 
124

>  <target>  (2) 
D68EV3C

$$$$
