7gp9-a
     RDKit          3D

 16 17  0  0  0  0  0  0  0  0999 V2000
    0.6840   -0.0070   28.3420 C   0  0  0  0  0  0  0  0  0  0  0  0
    0.3670    1.2690   27.9040 C   0  0  0  0  0  0  0  0  0  0  0  0
   -0.8920    1.4700   27.3700 C   0  0  0  0  0  0  0  0  0  0  0  0
   -1.7910    0.4380   27.2630 C   0  0  0  0  0  0  0  0  0  0  0  0
   -1.4910   -0.8250   27.7220 C   0  0  0  0  0  0  0  0  0  0  0  0
   -0.9470   -2.9450   29.6400 N   0  0  0  0  0  0  0  0  0  0  0  0
   -2.1700   -0.3300   31.4160 C   0  0  0  0  0  0  0  0  0  0  0  0
    0.3340   -3.3310   31.7260 O   0  0  0  0  0  0  0  0  0  0  0  0
   -0.8360   -1.0060   31.6160 C   0  0  0  0  0  0  0  0  0  0  0  0
    0.1310   -2.4250   28.7870 C   0  0  0  0  0  0  0  0  0  0  0  0
   -0.2320   -1.0560   28.2710 C   0  0  0  0  0  0  0  0  0  0  0  0
   -2.7670    2.2810   26.4600 C   0  0  0  0  0  0  0  0  0  0  0  0
   -2.1420   -3.2780   31.7870 O   0  0  0  0  0  0  0  0  0  0  0  0
   -2.9180    0.8630   26.5970 O   0  0  0  0  0  0  0  0  0  0  0  0
   -1.4630    2.6420   26.9260 O   0  0  0  0  0  0  0  0  0  0  0  0
   -0.9030   -2.7580   31.2800 S   0  0  1  0  0  0  0  0  0  0  0  0
  2  1  2  0
  3  2  1  0
  4  3  2  0
  5  4  1  0
  9  7  1  0
 10  6  1  0
 11 10  1  0
 11  5  2  0
 11  1  1  0
 14 12  1  0
 14  4  1  0
 15 12  1  0
 15  3  1  0
 16 13  2  0
 16  9  1  6
 16  8  2  0
 16  6  1  0
M  END
>  <id>  (1) 
13

>  <inchikey>  (1) 
UKPLBUIFSDRLEZ-UHFFFAOYSA-N

>  <alias>  (1) 
7gp9-a

>  <smiles>  (1) 
CCS(=O)(=O)NCc1ccc2c(c1)OCO2

>  <path>  (1) 
/opt/xchem-fragalysis-2/maxwin/BulkDock/TARGETS/D68EV3C/aligned_files/7gp9-a/7gp9-a.pdb

>  <distance_score>  (1) 
None

>  <energy_score>  (1) 
None

>  <compound>  (1) 
UKPLBUIFSDRLEZ-UHFFFAOYSA-N

>  <compound_id>  (1) 
12

>  <target>  (1) 
D68EV3C

$$$$
B0857a
     RDKit          3D

 16 18  0  0  0  0  0  0  0  0999 V2000
   -1.4260   -7.5370   34.6910 N   0  0  0  0  0  0  0  0  0  0  0  0
   -1.2750   -7.5410   33.3600 C   0  0  0  0  0  0  0  0  0  0  0  0
   -0.6170   -6.9420   31.3600 C   0  0  0  0  0  0  0  0  0  0  0  0
    0.0720   -6.1530   30.4100 C   0  0  0  0  0  0  0  0  0  0  0  0
    0.8690   -5.1460   30.8370 C   0  0  0  0  0  0  0  0  0  0  0  0
    1.0510   -4.8470   32.2340 C   0  0  0  0  0  0  0  0  0  0  0  0
    1.9720   -3.7700   32.6570 C   0  0  0  0  0  0  0  0  0  0  0  0
    1.6500   -2.8680   33.6660 C   0  0  0  0  0  0  0  0  0  0  0  0
    3.6730   -1.8540   33.4210 C   0  0  0  0  0  0  0  0  0  0  0  0
    3.9980   -2.7450   32.4160 C   0  0  0  0  0  0  0  0  0  0  0  0
    0.3770   -5.6110   33.1320 C   0  0  0  0  0  0  0  0  0  0  0  0
   -1.8850   -8.3320   32.4860 N   0  0  0  0  0  0  0  0  0  0  0  0
   -1.4670   -7.9530   31.2080 N   0  0  0  0  0  0  0  0  0  0  0  0
    2.4960   -1.9090   34.0530 N   0  0  0  0  0  0  0  0  0  0  0  0
    3.1550   -3.7110   32.0240 N   0  0  0  0  0  0  0  0  0  0  0  0
   -0.4460   -6.6370   32.7090 N   0  0  0  0  0  0  0  0  0  0  0  0
  2  1  1  0
  4  3  1  0
  5  4  2  0
  6  5  1  0
  7  6  1  0
  8  7  2  0
 10  9  1  0
 11  6  2  0
 12  2  2  0
 13 12  1  0
 13  3  2  0
 14  9  2  0
 14  8  1  0
 15 10  2  0
 15  7  1  0
 16  3  1  0
 16 11  1  0
 16  2  1  0
M  END
>  <id>  (2) 
156

>  <inchikey>  (2) 
UMISTZPDVYVABX-UHFFFAOYSA-N

>  <alias>  (2) 
B0857a

>  <smiles>  (2) 
Nc1nnc2ccc(-c3cnccn3)cn12

>  <path>  (2) 
/opt/xchem-fragalysis-2/maxwin/BulkDock/TARGETS/D68EV3C/aligned_files/B0857a/B0857a.pdb

>  <distance_score>  (2) 
None

>  <energy_score>  (2) 
None

>  <compound>  (2) 
UMISTZPDVYVABX-UHFFFAOYSA-N

>  <compound_id>  (2) 
125

>  <target>  (2) 
D68EV3C

$$$$
