7go2-a
     RDKit          3D

  9 10  0  0  0  0  0  0  0  0999 V2000
   -1.8520   -8.3030   32.2300 N   0  0  0  0  0  0  0  0  0  0  0  0
   -0.1540   -6.8920   32.3300 N   0  0  0  0  0  0  0  0  0  0  0  0
    0.7610   -6.0670   32.9740 C   0  0  0  0  0  0  0  0  0  0  0  0
   -1.3510   -8.0960   30.9450 N   0  0  0  0  0  0  0  0  0  0  0  0
   -0.3540   -7.2590   31.0340 C   0  0  0  0  0  0  0  0  0  0  0  0
   -1.1250   -7.5670   33.0620 C   0  0  0  0  0  0  0  0  0  0  0  0
   -1.1310   -7.3510   34.4660 C   0  0  0  0  0  0  0  0  0  0  0  0
    0.6690   -5.9420   34.3130 C   0  0  0  0  0  0  0  0  0  0  0  0
   -0.2780   -6.5710   35.0830 N   0  0  0  0  0  0  0  0  0  0  0  0
  3  2  1  0
  4  1  1  0
  5  4  2  0
  5  2  1  0
  6  2  1  0
  6  1  2  0
  7  6  1  0
  8  3  2  0
  9  8  1  0
  9  7  2  0
M  END
>  <id>  (1) 
105

>  <inchikey>  (1) 
NVSPJDGXKBDYIZ-UHFFFAOYSA-N

>  <alias>  (1) 
7go2-a

>  <smiles>  (1) 
c1cn2cnnc2cn1

>  <path>  (1) 
/opt/xchem-fragalysis-2/maxwin/BulkDock/TARGETS/D68EV3C/aligned_files/7go2-a/7go2-a.pdb

>  <distance_score>  (1) 
None

>  <energy_score>  (1) 
None

>  <compound>  (1) 
NVSPJDGXKBDYIZ-UHFFFAOYSA-N

>  <compound_id>  (1) 
87

>  <target>  (1) 
D68EV3C

$$$$
B0454a
     RDKit          3D

 17 18  0  0  0  0  0  0  0  0999 V2000
   -0.1360   -2.8360   32.7400 N   0  0  0  0  0  0  0  0  0  0  0  0
    1.0890   -2.5900   33.4840 C   0  0  0  0  0  0  0  0  0  0  0  0
   -1.6620   -4.1990   31.8530 O   0  0  0  0  0  0  0  0  0  0  0  0
   -0.9590   -1.6410   32.4380 C   0  0  0  0  0  0  0  0  0  0  0  0
   -0.5970   -6.9850   31.0220 C   0  0  0  0  0  0  0  0  0  0  0  0
   -1.2400   -7.3280   33.0350 C   0  0  0  0  0  0  0  0  0  0  0  0
   -0.8750   -1.1730   31.0020 C   0  0  0  0  0  0  0  0  0  0  0  0
   -1.3460   -1.9580   29.9560 C   0  0  0  0  0  0  0  0  0  0  0  0
   -1.2810   -1.5080   28.6480 C   0  0  0  0  0  0  0  0  0  0  0  0
   -0.7700   -0.2600   28.3690 C   0  0  0  0  0  0  0  0  0  0  0  0
   -0.3140    0.5350   29.3960 C   0  0  0  0  0  0  0  0  0  0  0  0
   -0.3550    0.0790   30.7020 C   0  0  0  0  0  0  0  0  0  0  0  0
   -0.5920   -4.0620   32.3960 C   0  0  0  0  0  0  0  0  0  0  0  0
    0.2330   -5.3070   32.7140 C   0  0  0  0  0  0  0  0  0  0  0  0
   -0.4700   -6.5150   32.2840 N   0  0  0  0  0  0  0  0  0  0  0  0
   -1.3990   -8.0140   30.9900 N   0  0  0  0  0  0  0  0  0  0  0  0
   -1.8130   -8.2420   32.2930 N   0  0  0  0  0  0  0  0  0  0  0  0
  2  1  1  0
  4  1  1  0
  7  4  1  0
  8  7  2  0
  9  8  1  0
 10  9  2  0
 11 10  1  0
 12 11  2  0
 12  7  1  0
 13  3  2  0
 13  1  1  0
 14 13  1  0
 15  5  1  0
 15  6  1  0
 15 14  1  0
 16  5  2  0
 17 16  1  0
 17  6  2  0
M  END
>  <id>  (2) 
134

>  <inchikey>  (2) 
AVTXWKNPLMOCII-UHFFFAOYSA-N

>  <alias>  (2) 
B0454a

>  <smiles>  (2) 
CN(Cc1ccccc1)C(=O)Cn1cnnc1

>  <path>  (2) 
/opt/xchem-fragalysis-2/maxwin/BulkDock/TARGETS/D68EV3C/aligned_files/B0454a/B0454a_hippo.pdb

>  <distance_score>  (2) 
None

>  <energy_score>  (2) 
None

>  <compound>  (2) 
AVTXWKNPLMOCII-UHFFFAOYSA-N

>  <compound_id>  (2) 
109

>  <target>  (2) 
D68EV3C

$$$$
