7gp9-a
     RDKit          3D

 16 17  0  0  0  0  0  0  0  0999 V2000
    0.6840   -0.0070   28.3420 C   0  0  0  0  0  0  0  0  0  0  0  0
    0.3670    1.2690   27.9040 C   0  0  0  0  0  0  0  0  0  0  0  0
   -0.8920    1.4700   27.3700 C   0  0  0  0  0  0  0  0  0  0  0  0
   -1.7910    0.4380   27.2630 C   0  0  0  0  0  0  0  0  0  0  0  0
   -1.4910   -0.8250   27.7220 C   0  0  0  0  0  0  0  0  0  0  0  0
   -0.9470   -2.9450   29.6400 N   0  0  0  0  0  0  0  0  0  0  0  0
   -2.1700   -0.3300   31.4160 C   0  0  0  0  0  0  0  0  0  0  0  0
    0.3340   -3.3310   31.7260 O   0  0  0  0  0  0  0  0  0  0  0  0
   -0.8360   -1.0060   31.6160 C   0  0  0  0  0  0  0  0  0  0  0  0
    0.1310   -2.4250   28.7870 C   0  0  0  0  0  0  0  0  0  0  0  0
   -0.2320   -1.0560   28.2710 C   0  0  0  0  0  0  0  0  0  0  0  0
   -2.7670    2.2810   26.4600 C   0  0  0  0  0  0  0  0  0  0  0  0
   -2.1420   -3.2780   31.7870 O   0  0  0  0  0  0  0  0  0  0  0  0
   -2.9180    0.8630   26.5970 O   0  0  0  0  0  0  0  0  0  0  0  0
   -1.4630    2.6420   26.9260 O   0  0  0  0  0  0  0  0  0  0  0  0
   -0.9030   -2.7580   31.2800 S   0  0  1  0  0  0  0  0  0  0  0  0
  2  1  2  0
  3  2  1  0
  4  3  2  0
  5  4  1  0
  9  7  1  0
 10  6  1  0
 11 10  1  0
 11  5  2  0
 11  1  1  0
 14 12  1  0
 14  4  1  0
 15 12  1  0
 15  3  1  0
 16 13  2  0
 16  9  1  6
 16  8  2  0
 16  6  1  0
M  END
>  <id>  (1) 
13

>  <inchikey>  (1) 
UKPLBUIFSDRLEZ-UHFFFAOYSA-N

>  <alias>  (1) 
7gp9-a

>  <smiles>  (1) 
CCS(=O)(=O)NCc1ccc2c(c1)OCO2

>  <path>  (1) 
/opt/xchem-fragalysis-2/maxwin/BulkDock/TARGETS/D68EV3C/aligned_files/7gp9-a/7gp9-a.pdb

>  <distance_score>  (1) 
None

>  <energy_score>  (1) 
None

>  <compound>  (1) 
UKPLBUIFSDRLEZ-UHFFFAOYSA-N

>  <compound_id>  (1) 
12

>  <target>  (1) 
D68EV3C

$$$$
B0875a
     RDKit          3D

 18 20  0  0  0  0  0  0  0  0999 V2000
   -0.3500   -5.8550   37.2020 N   0  0  0  0  0  0  0  0  0  0  0  0
   -0.1670   -6.3260   35.9050 C   0  0  0  0  0  0  0  0  0  0  0  0
    0.4630   -7.3520   35.6810 O   0  0  0  0  0  0  0  0  0  0  0  0
   -0.0960   -6.5820   38.3780 C   0  0  0  0  0  0  0  0  0  0  0  0
    0.6990   -7.7280   38.4930 C   0  0  0  0  0  0  0  0  0  0  0  0
   -0.5760   -6.3550   39.6380 C   0  0  0  0  0  0  0  0  0  0  0  0
   -0.0810   -5.6760   33.5660 C   0  0  0  0  0  0  0  0  0  0  0  0
    0.8350   -4.9980   32.7770 C   0  0  0  0  0  0  0  0  0  0  0  0
    0.9580   -5.3230   31.4060 C   0  0  0  0  0  0  0  0  0  0  0  0
    0.2020   -6.3160   30.8390 C   0  0  0  0  0  0  0  0  0  0  0  0
   -0.7240   -7.0400   31.6320 C   0  0  0  0  0  0  0  0  0  0  0  0
   -1.7600   -7.5860   33.4760 C   0  0  0  0  0  0  0  0  0  0  0  0
    0.6910   -8.1750   39.7420 N   0  0  0  0  0  0  0  0  0  0  0  0
   -0.0940   -7.3190   40.4290 N   0  0  0  0  0  0  0  0  0  0  0  0
   -0.2820   -5.3690   34.9120 N   0  0  0  0  0  0  0  0  0  0  0  0
   -1.5040   -8.0830   31.3730 N   0  0  0  0  0  0  0  0  0  0  0  0
   -2.1530   -8.4200   32.5580 N   0  0  0  0  0  0  0  0  0  0  0  0
   -0.8520   -6.6970   32.9730 N   0  0  0  0  0  0  0  0  0  0  0  0
  2  1  1  0
  3  2  2  0
  4  1  1  0
  5  4  1  0
  6  4  2  0
  8  7  2  0
  9  8  1  0
 10  9  2  0
 11 10  1  0
 13  5  2  0
 14 13  1  0
 14  6  1  0
 15  7  1  0
 15  2  1  0
 16 11  2  0
 17 16  1  0
 17 12  2  0
 18 11  1  0
 18 12  1  0
 18  7  1  0
M  END
>  <id>  (2) 
158

>  <inchikey>  (2) 
JRIYYXNYNZMFKZ-UHFFFAOYSA-N

>  <alias>  (2) 
B0875a

>  <smiles>  (2) 
O=C(Nc1cn[nH]c1)Nc1cccc2nncn12

>  <path>  (2) 
/opt/xchem-fragalysis-2/maxwin/BulkDock/TARGETS/D68EV3C/aligned_files/B0875a/B0875a_hippo.pdb

>  <distance_score>  (2) 
None

>  <energy_score>  (2) 
None

>  <compound>  (2) 
JRIYYXNYNZMFKZ-UHFFFAOYSA-N

>  <compound_id>  (2) 
126

>  <target>  (2) 
D68EV3C

$$$$
