7gp9-a
     RDKit          3D

 16 17  0  0  0  0  0  0  0  0999 V2000
    0.6840   -0.0070   28.3420 C   0  0  0  0  0  0  0  0  0  0  0  0
    0.3670    1.2690   27.9040 C   0  0  0  0  0  0  0  0  0  0  0  0
   -0.8920    1.4700   27.3700 C   0  0  0  0  0  0  0  0  0  0  0  0
   -1.7910    0.4380   27.2630 C   0  0  0  0  0  0  0  0  0  0  0  0
   -1.4910   -0.8250   27.7220 C   0  0  0  0  0  0  0  0  0  0  0  0
   -0.9470   -2.9450   29.6400 N   0  0  0  0  0  0  0  0  0  0  0  0
   -2.1700   -0.3300   31.4160 C   0  0  0  0  0  0  0  0  0  0  0  0
    0.3340   -3.3310   31.7260 O   0  0  0  0  0  0  0  0  0  0  0  0
   -0.8360   -1.0060   31.6160 C   0  0  0  0  0  0  0  0  0  0  0  0
    0.1310   -2.4250   28.7870 C   0  0  0  0  0  0  0  0  0  0  0  0
   -0.2320   -1.0560   28.2710 C   0  0  0  0  0  0  0  0  0  0  0  0
   -2.7670    2.2810   26.4600 C   0  0  0  0  0  0  0  0  0  0  0  0
   -2.1420   -3.2780   31.7870 O   0  0  0  0  0  0  0  0  0  0  0  0
   -2.9180    0.8630   26.5970 O   0  0  0  0  0  0  0  0  0  0  0  0
   -1.4630    2.6420   26.9260 O   0  0  0  0  0  0  0  0  0  0  0  0
   -0.9030   -2.7580   31.2800 S   0  0  1  0  0  0  0  0  0  0  0  0
  2  1  2  0
  3  2  1  0
  4  3  2  0
  5  4  1  0
  9  7  1  0
 10  6  1  0
 11 10  1  0
 11  5  2  0
 11  1  1  0
 14 12  1  0
 14  4  1  0
 15 12  1  0
 15  3  1  0
 16 13  2  0
 16  9  1  6
 16  8  2  0
 16  6  1  0
M  END
>  <id>  (1) 
13

>  <inchikey>  (1) 
UKPLBUIFSDRLEZ-UHFFFAOYSA-N

>  <alias>  (1) 
7gp9-a

>  <smiles>  (1) 
CCS(=O)(=O)NCc1ccc2c(c1)OCO2

>  <path>  (1) 
/opt/xchem-fragalysis-2/maxwin/BulkDock/TARGETS/D68EV3C/aligned_files/7gp9-a/7gp9-a.pdb

>  <distance_score>  (1) 
None

>  <energy_score>  (1) 
None

>  <compound>  (1) 
UKPLBUIFSDRLEZ-UHFFFAOYSA-N

>  <compound_id>  (1) 
12

>  <target>  (1) 
D68EV3C

$$$$
B0938a
     RDKit          3D

 20 23  0  0  0  0  0  0  0  0999 V2000
    1.1990   -7.1230   35.2490 N   0  0  0  0  0  0  0  0  0  0  0  0
    2.1430   -7.9790   35.7770 C   0  0  0  0  0  0  0  0  0  0  0  0
    2.9460   -8.5490   35.0310 O   0  0  0  0  0  0  0  0  0  0  0  0
    0.2660   -6.4890   36.0170 C   0  0  0  0  0  0  0  0  0  0  0  0
    2.1190   -8.6300   39.6240 C   0  0  0  0  0  0  0  0  0  0  0  0
    2.0170   -8.1090   37.2270 C   0  0  0  0  0  0  0  0  0  0  0  0
   -0.4930   -5.5920   33.5470 C   0  0  0  0  0  0  0  0  0  0  0  0
    0.1730   -4.6860   32.7920 C   0  0  0  0  0  0  0  0  0  0  0  0
    0.3410   -4.9130   31.4080 C   0  0  0  0  0  0  0  0  0  0  0  0
   -0.1660   -6.0320   30.8030 C   0  0  0  0  0  0  0  0  0  0  0  0
   -0.8700   -6.9820   31.5800 C   0  0  0  0  0  0  0  0  0  0  0  0
   -1.6930   -7.8140   33.4210 C   0  0  0  0  0  0  0  0  0  0  0  0
    1.0420   -7.4540   37.9480 C   0  0  0  0  0  0  0  0  0  0  0  0
    1.1000   -7.7620   39.3510 C   0  0  0  0  0  0  0  0  0  0  0  0
   -1.4920   -8.1230   31.2840 N   0  0  0  0  0  0  0  0  0  0  0  0
   -2.0060   -8.6340   32.4630 N   0  0  0  0  0  0  0  0  0  0  0  0
   -0.9950   -6.7450   32.9410 N   0  0  0  0  0  0  0  0  0  0  0  0
    0.1560   -6.6250   37.3090 N   0  0  0  0  0  0  0  0  0  0  0  0
   -0.8560   -5.3960   35.2530 S   0  0  0  0  0  0  0  0  0  0  0  0
    3.0130   -9.0820   38.2440 S   0  0  0  0  0  0  0  0  0  0  0  0
  2  1  1  0
  3  2  2  0
  4  1  1  0
  6  2  1  0
  8  7  2  0
  9  8  1  0
 10  9  2  0
 11 10  1  0
 13  6  2  0
 14 13  1  0
 14  5  2  0
 15 11  2  0
 16 15  1  0
 16 12  2  0
 17 11  1  0
 17 12  1  0
 17  7  1  0
 18 13  1  0
 18  4  2  0
 19  7  1  0
 19  4  1  0
 20  6  1  0
 20  5  1  0
M  END
>  <id>  (2) 
166

>  <inchikey>  (2) 
NCWBPSWMAZWHHP-UHFFFAOYSA-N

>  <alias>  (2) 
B0938a

>  <smiles>  (2) 
O=c1[nH]c(Sc2cccc3nncn23)nc2ccsc12

>  <path>  (2) 
/opt/xchem-fragalysis-2/maxwin/BulkDock/TARGETS/D68EV3C/aligned_files/B0938a/B0938a.pdb

>  <distance_score>  (2) 
None

>  <energy_score>  (2) 
None

>  <compound>  (2) 
NCWBPSWMAZWHHP-UHFFFAOYSA-N

>  <compound_id>  (2) 
130

>  <target>  (2) 
D68EV3C

$$$$
