B0436a
     RDKit          3D

 21 23  0  0  0  0  0  0  0  0999 V2000
    2.5550    1.2040   35.1450 N   0  0  0  0  0  0  0  0  0  0  0  0
    2.4470    2.4700   35.8470 C   0  0  0  0  0  0  0  0  0  0  0  0
    3.8150    1.7910   33.3850 O   0  0  0  0  0  0  0  0  0  0  0  0
    3.5000    0.9670   34.2420 C   0  0  0  0  0  0  0  0  0  0  0  0
   -0.5440   -6.9450   31.3470 C   0  0  0  0  0  0  0  0  0  0  0  0
   -1.3610   -7.5380   33.2920 C   0  0  0  0  0  0  0  0  0  0  0  0
    0.2450   -5.5590   33.1780 C   0  0  0  0  0  0  0  0  0  0  0  0
    1.8340   -2.4560   32.1770 C   0  0  0  0  0  0  0  0  0  0  0  0
    2.5820   -1.4000   32.6640 C   0  0  0  0  0  0  0  0  0  0  0  0
    4.1830   -0.3840   34.3360 C   0  0  0  0  0  0  0  0  0  0  0  0
    3.3490   -1.5330   33.8130 C   0  0  0  0  0  0  0  0  0  0  0  0
    3.3510   -2.7600   34.4600 C   0  0  0  0  0  0  0  0  0  0  0  0
    2.6010   -3.8220   33.9820 C   0  0  0  0  0  0  0  0  0  0  0  0
    1.8270   -3.6850   32.8320 C   0  0  0  0  0  0  0  0  0  0  0  0
    1.0010   -4.8110   32.3340 C   0  0  0  0  0  0  0  0  0  0  0  0
    0.9850   -5.1510   30.9370 C   0  0  0  0  0  0  0  0  0  0  0  0
    0.2460   -6.1770   30.4510 C   0  0  0  0  0  0  0  0  0  0  0  0
   -1.3510   -7.9780   31.1400 N   0  0  0  0  0  0  0  0  0  0  0  0
   -1.8720   -8.3530   32.3780 N   0  0  0  0  0  0  0  0  0  0  0  0
   -1.5820   -7.5670   34.6120 N   0  0  0  0  0  0  0  0  0  0  0  0
   -0.5130   -6.6100   32.6980 N   0  0  0  0  0  0  0  0  0  0  0  0
  2  1  1  0
  4  3  2  0
  4  1  1  0
  9  8  2  0
 10  4  1  0
 11  9  1  0
 11 10  1  0
 12 11  2  0
 13 12  1  0
 14  8  1  0
 14 13  2  0
 15  7  2  0
 15 14  1  0
 16 15  1  0
 17  5  1  0
 17 16  2  0
 18  5  2  0
 19 18  1  0
 19  6  2  0
 20  6  1  0
 21  5  1  0
 21  7  1  0
 21  6  1  0
M  END
>  <id>  (1) 
128

>  <inchikey>  (1) 
RWCBDYVITSXUHF-UHFFFAOYSA-N

>  <alias>  (1) 
B0436a

>  <smiles>  (1) 
CNC(=O)Cc1ccc(-c2ccc3nnc(N)n3c2)cc1

>  <path>  (1) 
/opt/xchem-fragalysis-2/maxwin/BulkDock/TARGETS/D68EV3C/aligned_files/B0436a/B0436a.pdb

>  <distance_score>  (1) 
None

>  <energy_score>  (1) 
None

>  <compound>  (1) 
RWCBDYVITSXUHF-UHFFFAOYSA-N

>  <compound_id>  (1) 
105

>  <target>  (1) 
D68EV3C

$$$$
B1456a
     RDKit          3D

 20 21  0  0  0  0  0  0  0  0999 V2000
   -0.4260   -7.0920   31.1510 N   0  0  0  0  0  0  0  0  0  0  0  0
   -0.3010   -6.3980   35.3460 C   0  0  0  0  0  0  0  0  0  0  0  0
   -2.0040   -8.7050   31.4070 O   0  0  0  0  0  0  0  0  0  0  0  0
   -0.3920   -6.6660   33.8740 C   0  0  0  0  0  0  0  0  0  0  0  0
   -1.9130   -0.0070   27.2880 C   0  0  0  0  0  0  0  0  0  0  0  0
   -1.2650   -7.6100   33.3570 C   0  0  0  0  0  0  0  0  0  0  0  0
   -1.2360   -7.7980   31.9590 C   0  0  0  0  0  0  0  0  0  0  0  0
    0.3610   -6.1970   31.7630 C   0  0  0  0  0  0  0  0  0  0  0  0
    1.2330   -5.3760   30.8630 C   0  0  0  0  0  0  0  0  0  0  0  0
    0.4920   -4.1110   30.4690 C   0  0  0  0  0  0  0  0  0  0  0  0
   -1.1250   -1.2920   30.4940 C   0  0  0  0  0  0  0  0  0  0  0  0
   -0.5330   -0.0250   30.6400 C   0  0  0  0  0  0  0  0  0  0  0  0
   -0.7300    0.6140   29.4530 C   0  0  0  0  0  0  0  0  0  0  0  0
    0.1510   -3.3030   31.6510 N   0  0  0  0  0  0  0  0  0  0  0  0
   -1.4220   -0.2630   28.6340 N   0  0  0  0  0  0  0  0  0  0  0  0
   -1.6800   -1.4580   29.2250 N   0  0  0  0  0  0  0  0  0  0  0  0
    0.4240   -5.9540   33.0790 N   0  0  0  0  0  0  0  0  0  0  0  0
   -1.1950   -1.6890   32.9150 O   0  0  0  0  0  0  0  0  0  0  0  0
   -2.2940   -3.3510   31.4480 O   0  0  0  0  0  0  0  0  0  0  0  0
   -1.2190   -2.4440   31.7000 S   0  0  1  0  0  0  0  0  0  0  0  0
  4  2  1  0
  6  4  2  0
  7  3  1  0
  7  1  2  0
  7  6  1  0
  8  1  1  0
  9  8  1  0
 10  9  1  0
 12 11  1  0
 13 12  2  0
 14 10  1  0
 15 13  1  0
 15  5  1  0
 16 15  1  0
 16 11  2  0
 17  8  2  0
 17  4  1  0
 20 19  2  0
 20 14  1  1
 20 11  1  0
 20 18  2  0
M  END
>  <id>  (2) 
194

>  <inchikey>  (2) 
VSFGQSDQUSDVDR-UHFFFAOYSA-N

>  <alias>  (2) 
B1456a

>  <smiles>  (2) 
Cc1cc(O)nc(CCNS(=O)(=O)c2ccn(C)n2)n1

>  <path>  (2) 
/opt/xchem-fragalysis-2/maxwin/BulkDock/TARGETS/D68EV3C/aligned_files/B1456a/B1456a.pdb

>  <distance_score>  (2) 
None

>  <energy_score>  (2) 
None

>  <compound>  (2) 
VSFGQSDQUSDVDR-UHFFFAOYSA-N

>  <compound_id>  (2) 
152

>  <target>  (2) 
D68EV3C

$$$$
