7gp2-a
     RDKit          3D

 11 11  0  0  0  0  0  0  0  0999 V2000
   -1.2210    1.4250   28.4530 N   0  0  0  0  0  0  0  0  0  0  0  0
   -1.7560    3.3480   26.3680 C   0  0  2  0  0  0  0  0  0  0  0  0
   -2.6070    2.1140   26.5440 C   0  0  0  0  0  0  0  0  0  0  0  0
   -1.7900    0.9890   27.1630 C   0  0  0  0  0  0  0  0  0  0  0  0
    0.5030   -0.6830   28.4890 C   0  0  0  0  0  0  0  0  0  0  0  0
   -0.6660    0.2330   29.4230 S   0  0  1  0  0  0  0  0  0  0  0  0
    0.0210    0.8620   30.5070 O   0  0  0  0  0  0  0  0  0  0  0  0
   -1.7780   -0.6160   29.7160 O   0  0  0  0  0  0  0  0  0  0  0  0
   -0.3730    2.6250   28.3190 C   0  0  0  0  0  0  0  0  0  0  0  0
   -1.1750    3.7640   27.7000 C   0  0  0  0  0  0  0  0  0  0  0  0
   -2.5260    4.4020   25.7890 O   0  0  0  0  0  0  0  0  0  0  0  0
  3  2  1  0
  4  3  1  0
  4  1  1  0
  6  5  1  6
  6  1  1  0
  7  6  2  0
  8  6  2  0
  9  1  1  0
 10  2  1  0
 10  9  1  0
  2 11  1  1
M  END
>  <id>  (1) 
44

>  <inchikey>  (1) 
UPEFDWJLNXWMOW-UHFFFAOYSA-N

>  <alias>  (1) 
7gp2-a

>  <smiles>  (1) 
CS(=O)(=O)N1CCC(O)CC1

>  <path>  (1) 
/opt/xchem-fragalysis-2/maxwin/BulkDock/TARGETS/D68EV3C/aligned_files/7gp2-a/7gp2-a.pdb

>  <distance_score>  (1) 
None

>  <energy_score>  (1) 
None

>  <compound>  (1) 
UPEFDWJLNXWMOW-UHFFFAOYSA-N

>  <compound_id>  (1) 
36

>  <target>  (1) 
D68EV3C

$$$$
B1463a
     RDKit          3D

 20 21  0  0  0  0  0  0  0  0999 V2000
   -0.3120   -7.3570   31.3010 N   0  0  0  0  0  0  0  0  0  0  0  0
   -0.3680   -6.6230   35.4880 C   0  0  0  0  0  0  0  0  0  0  0  0
   -2.0940   -8.7200   31.4470 O   0  0  0  0  0  0  0  0  0  0  0  0
   -0.4080   -6.8910   34.0150 C   0  0  0  0  0  0  0  0  0  0  0  0
   -1.3090   -2.1020   29.3970 C   0  0  0  0  0  0  0  0  0  0  0  0
   -1.3430   -7.7430   33.4530 C   0  0  0  0  0  0  0  0  0  0  0  0
   -1.2440   -7.9490   32.0550 C   0  0  0  0  0  0  0  0  0  0  0  0
    0.5150   -6.5340   31.9520 C   0  0  0  0  0  0  0  0  0  0  0  0
    1.4620   -5.7650   31.0830 C   0  0  0  0  0  0  0  0  0  0  0  0
    0.6900   -4.5500   30.6250 C   0  0  0  0  0  0  0  0  0  0  0  0
   -0.0810   -0.6280   30.9280 C   0  0  0  0  0  0  0  0  0  0  0  0
   -0.3860    0.3740   29.8490 C   0  0  0  0  0  0  0  0  0  0  0  0
   -0.1770   -1.5770   28.5490 C   0  0  0  0  0  0  0  0  0  0  0  0
    0.4530   -3.6230   31.7380 N   0  0  0  0  0  0  0  0  0  0  0  0
   -1.0390   -1.7430   30.8030 N   0  0  0  0  0  0  0  0  0  0  0  0
    0.5220   -6.2760   33.2660 N   0  0  0  0  0  0  0  0  0  0  0  0
   -0.9420   -2.2360   33.2160 O   0  0  0  0  0  0  0  0  0  0  0  0
   -2.0160   -3.8560   31.6970 O   0  0  0  0  0  0  0  0  0  0  0  0
   -0.1250   -0.1510   28.5470 O   0  0  0  0  0  0  0  0  0  0  0  0
   -0.9890   -2.8990   31.9520 S   0  0  2  0  0  0  0  0  0  0  0  0
  4  2  1  0
  6  4  2  0
  7  3  1  0
  7  1  2  0
  7  6  1  0
  8  1  1  0
  9  8  1  0
 10  9  1  0
 12 11  1  0
 13  5  1  0
 14 10  1  0
 15 11  1  0
 15  5  1  0
 16  8  2  0
 16  4  1  0
 19 13  1  0
 19 12  1  0
 20 18  2  0
 20 15  1  0
 20 14  1  6
 20 17  2  0
M  END
>  <id>  (2) 
202

>  <inchikey>  (2) 
BDTWKIPTSXXQQL-UHFFFAOYSA-N

>  <alias>  (2) 
B1463a

>  <smiles>  (2) 
Cc1cc(O)nc(CCNS(=O)(=O)N2CCOCC2)n1

>  <path>  (2) 
/opt/xchem-fragalysis-2/maxwin/BulkDock/TARGETS/D68EV3C/aligned_files/B1463a/B1463a.pdb

>  <distance_score>  (2) 
None

>  <energy_score>  (2) 
None

>  <compound>  (2) 
BDTWKIPTSXXQQL-UHFFFAOYSA-N

>  <compound_id>  (2) 
156

>  <target>  (2) 
D68EV3C

$$$$
