B0439a
     RDKit          3D

 21 23  0  0  0  0  0  0  0  0999 V2000
    4.2060   -2.6230   34.9930 N   0  0  0  0  0  0  0  0  0  0  0  0
    2.5070   -3.8810   36.6750 C   0  0  0  0  0  0  0  0  0  0  0  0
    4.9430   -3.2400   37.2620 O   0  0  0  0  0  0  0  0  0  0  0  0
    3.4540   -2.6970   33.7790 C   0  0  0  0  0  0  0  0  0  0  0  0
   -1.3780   -7.5220   33.2990 C   0  0  0  0  0  0  0  0  0  0  0  0
    0.3150   -5.6340   32.9380 C   0  0  0  0  0  0  0  0  0  0  0  0
    2.6610   -3.8030   33.4690 C   0  0  0  0  0  0  0  0  0  0  0  0
    3.4860   -1.6070   32.9150 C   0  0  0  0  0  0  0  0  0  0  0  0
    2.7320   -1.6240   31.7550 C   0  0  0  0  0  0  0  0  0  0  0  0
    1.9440   -2.7200   31.4490 C   0  0  0  0  0  0  0  0  0  0  0  0
    1.8970   -3.8200   32.3030 C   0  0  0  0  0  0  0  0  0  0  0  0
    1.0430   -4.9930   31.9870 C   0  0  0  0  0  0  0  0  0  0  0  0
    0.9320   -5.4580   30.6280 C   0  0  0  0  0  0  0  0  0  0  0  0
    0.1240   -6.4850   30.2790 C   0  0  0  0  0  0  0  0  0  0  0  0
   -0.6450   -7.1310   31.2770 C   0  0  0  0  0  0  0  0  0  0  0  0
   -1.5070   -8.1330   31.1960 N   0  0  0  0  0  0  0  0  0  0  0  0
   -1.9740   -8.3820   32.4820 N   0  0  0  0  0  0  0  0  0  0  0  0
   -1.5500   -7.4230   34.6210 N   0  0  0  0  0  0  0  0  0  0  0  0
   -0.5180   -6.6870   32.5940 N   0  0  0  0  0  0  0  0  0  0  0  0
    4.5690   -4.9910   35.5690 O   0  0  0  0  0  0  0  0  0  0  0  0
    4.1790   -3.7510   36.1660 S   0  0  2  0  0  0  0  0  0  0  0  0
  4  1  1  0
  7  4  2  0
  8  4  1  0
  9  8  2  0
 10  9  1  0
 11 10  2  0
 11  7  1  0
 12  6  2  0
 12 11  1  0
 13 12  1  0
 14 13  2  0
 15 14  1  0
 16 15  2  0
 17 16  1  0
 17  5  2  0
 18  5  1  0
 19 15  1  0
 19  6  1  0
 19  5  1  0
 21 20  2  0
 21  3  2  0
 21  2  1  1
 21  1  1  0
M  END
>  <id>  (1) 
129

>  <inchikey>  (1) 
POMKRPOCZAWFPL-UHFFFAOYSA-N

>  <alias>  (1) 
B0439a

>  <smiles>  (1) 
CS(=O)(=O)Nc1cccc(-c2ccc3nnc(N)n3c2)c1

>  <path>  (1) 
/opt/xchem-fragalysis-2/maxwin/BulkDock/TARGETS/D68EV3C/aligned_files/B0439a/B0439a.pdb

>  <distance_score>  (1) 
None

>  <energy_score>  (1) 
None

>  <compound>  (1) 
POMKRPOCZAWFPL-UHFFFAOYSA-N

>  <compound_id>  (1) 
106

>  <target>  (1) 
D68EV3C

$$$$
B0446a
     RDKit          3D

 19 20  0  0  0  0  0  0  0  0999 V2000
   -0.8660   -2.7480   29.8220 N   0  0  0  0  0  0  0  0  0  0  0  0
    0.3320   -2.6860   28.9900 C   0  0  0  0  0  0  0  0  0  0  0  0
   -1.9890   -3.5900   31.6130 O   0  0  0  0  0  0  0  0  0  0  0  0
   -1.9740   -1.8900   29.3800 C   0  0  0  0  0  0  0  0  0  0  0  0
    0.7730   -6.0330   32.8410 C   0  0  0  0  0  0  0  0  0  0  0  0
   -1.1600   -7.6770   33.0230 C   0  0  0  0  0  0  0  0  0  0  0  0
   -0.4260   -7.3720   31.0330 C   0  0  0  0  0  0  0  0  0  0  0  0
   -1.5580   -0.4710   29.0590 C   0  0  0  0  0  0  0  0  0  0  0  0
   -0.8690    0.2980   29.9880 C   0  0  0  0  0  0  0  0  0  0  0  0
   -0.5200    1.6110   29.7010 C   0  0  0  0  0  0  0  0  0  0  0  0
   -0.8700    2.1760   28.4900 C   0  0  0  0  0  0  0  0  0  0  0  0
   -1.5610    1.4280   27.5630 C   0  0  0  0  0  0  0  0  0  0  0  0
   -1.8910    0.1080   27.8400 C   0  0  0  0  0  0  0  0  0  0  0  0
   -0.9560   -3.5150   30.9650 C   0  0  0  0  0  0  0  0  0  0  0  0
    0.3590   -4.5740   32.7270 C   0  0  0  0  0  0  0  0  0  0  0  0
    0.1430   -4.2040   31.3370 N   0  0  0  0  0  0  0  0  0  0  0  0
   -0.2440   -6.9810   32.3150 N   0  0  0  0  0  0  0  0  0  0  0  0
   -1.8720   -8.4410   32.2370 N   0  0  0  0  0  0  0  0  0  0  0  0
   -1.3950   -8.2460   30.9470 N   0  0  0  0  0  0  0  0  0  0  0  0
  2  1  1  0
  4  1  1  0
  8  4  1  0
  9  8  2  0
 10  9  1  0
 11 10  2  0
 12 11  1  0
 13 12  2  0
 13  8  1  0
 14  3  2  0
 14  1  1  0
 15  5  1  0
 16 14  1  0
 16 15  1  0
 17  7  1  0
 17  6  1  0
 17  5  1  0
 18  6  2  0
 19 18  1  0
 19  7  2  0
M  END
>  <id>  (2) 
130

>  <inchikey>  (2) 
DGXVCUCSXWHVSR-UHFFFAOYSA-N

>  <alias>  (2) 
B0446a

>  <smiles>  (2) 
CN(Cc1ccccc1)C(=O)NCCn1cnnc1

>  <path>  (2) 
/opt/xchem-fragalysis-2/maxwin/BulkDock/TARGETS/D68EV3C/aligned_files/B0446a/B0446a_hippo.pdb

>  <distance_score>  (2) 
None

>  <energy_score>  (2) 
None

>  <compound>  (2) 
DGXVCUCSXWHVSR-UHFFFAOYSA-N

>  <compound_id>  (2) 
107

>  <target>  (2) 
D68EV3C

$$$$
