7gp2-a
     RDKit          3D

 11 11  0  0  0  0  0  0  0  0999 V2000
   -1.2210    1.4250   28.4530 N   0  0  0  0  0  0  0  0  0  0  0  0
   -1.7560    3.3480   26.3680 C   0  0  2  0  0  0  0  0  0  0  0  0
   -2.6070    2.1140   26.5440 C   0  0  0  0  0  0  0  0  0  0  0  0
   -1.7900    0.9890   27.1630 C   0  0  0  0  0  0  0  0  0  0  0  0
    0.5030   -0.6830   28.4890 C   0  0  0  0  0  0  0  0  0  0  0  0
   -0.6660    0.2330   29.4230 S   0  0  1  0  0  0  0  0  0  0  0  0
    0.0210    0.8620   30.5070 O   0  0  0  0  0  0  0  0  0  0  0  0
   -1.7780   -0.6160   29.7160 O   0  0  0  0  0  0  0  0  0  0  0  0
   -0.3730    2.6250   28.3190 C   0  0  0  0  0  0  0  0  0  0  0  0
   -1.1750    3.7640   27.7000 C   0  0  0  0  0  0  0  0  0  0  0  0
   -2.5260    4.4020   25.7890 O   0  0  0  0  0  0  0  0  0  0  0  0
  3  2  1  0
  4  3  1  0
  4  1  1  0
  6  5  1  6
  6  1  1  0
  7  6  2  0
  8  6  2  0
  9  1  1  0
 10  2  1  0
 10  9  1  0
  2 11  1  1
M  END
>  <id>  (1) 
44

>  <inchikey>  (1) 
UPEFDWJLNXWMOW-UHFFFAOYSA-N

>  <alias>  (1) 
7gp2-a

>  <smiles>  (1) 
CS(=O)(=O)N1CCC(O)CC1

>  <path>  (1) 
/opt/xchem-fragalysis-2/maxwin/BulkDock/TARGETS/D68EV3C/aligned_files/7gp2-a/7gp2-a.pdb

>  <distance_score>  (1) 
None

>  <energy_score>  (1) 
None

>  <compound>  (1) 
UPEFDWJLNXWMOW-UHFFFAOYSA-N

>  <compound_id>  (1) 
36

>  <target>  (1) 
D68EV3C

$$$$
B0450a
     RDKit          3D

 20 22  0  0  0  0  0  0  0  0999 V2000
   -1.4050   -7.9820   31.0890 N   0  0  0  0  0  0  0  0  0  0  0  0
    6.2170   -1.1670   33.6830 C   0  0  0  0  0  0  0  0  0  0  0  0
    5.0690   -1.5100   34.4600 O   0  0  0  0  0  0  0  0  0  0  0  0
    4.1330   -2.3230   33.8800 C   0  0  0  0  0  0  0  0  0  0  0  0
    0.4450   -5.7930   33.1700 C   0  0  0  0  0  0  0  0  0  0  0  0
    2.9970   -4.4510   34.0090 C   0  0  0  0  0  0  0  0  0  0  0  0
    3.9380   -3.5690   34.5080 C   0  0  0  0  0  0  0  0  0  0  0  0
    5.4020   -5.0790   35.6500 C   0  0  0  0  0  0  0  0  0  0  0  0
    3.3870   -1.9910   32.7590 C   0  0  0  0  0  0  0  0  0  0  0  0
    2.4530   -2.8860   32.2660 C   0  0  0  0  0  0  0  0  0  0  0  0
    2.2490   -4.1200   32.8820 C   0  0  0  0  0  0  0  0  0  0  0  0
    1.2600   -5.0860   32.3450 C   0  0  0  0  0  0  0  0  0  0  0  0
    1.1710   -5.3550   30.9310 C   0  0  0  0  0  0  0  0  0  0  0  0
    0.3190   -6.2830   30.4240 C   0  0  0  0  0  0  0  0  0  0  0  0
   -0.5130   -7.0170   31.3060 C   0  0  0  0  0  0  0  0  0  0  0  0
   -1.3210   -7.6120   33.2510 C   0  0  0  0  0  0  0  0  0  0  0  0
   -1.9160   -8.3590   32.3280 N   0  0  0  0  0  0  0  0  0  0  0  0
   -1.5260   -7.6400   34.5750 N   0  0  0  0  0  0  0  0  0  0  0  0
   -0.4230   -6.7430   32.6670 N   0  0  0  0  0  0  0  0  0  0  0  0
    4.7330   -3.8180   35.5930 O   0  0  0  0  0  0  0  0  0  0  0  0
  3  2  1  0
  4  3  1  0
  7  6  1  0
  7  4  2  0
  9  4  1  0
 10  9  2  0
 11 10  1  0
 11  6  2  0
 12  5  2  0
 12 11  1  0
 13 12  1  0
 14 13  2  0
 15 14  1  0
 15  1  2  0
 17  1  1  0
 17 16  2  0
 18 16  1  0
 19 15  1  0
 19 16  1  0
 19  5  1  0
 20  8  1  0
 20  7  1  0
M  END
>  <id>  (2) 
132

>  <inchikey>  (2) 
WPZDOUWFJLYHBJ-UHFFFAOYSA-N

>  <alias>  (2) 
B0450a

>  <smiles>  (2) 
COc1ccc(-c2ccc3nnc(N)n3c2)cc1OC

>  <path>  (2) 
/opt/xchem-fragalysis-2/maxwin/BulkDock/TARGETS/D68EV3C/aligned_files/B0450a/B0450a.pdb

>  <distance_score>  (2) 
None

>  <energy_score>  (2) 
None

>  <compound>  (2) 
WPZDOUWFJLYHBJ-UHFFFAOYSA-N

>  <compound_id>  (2) 
108

>  <target>  (2) 
D68EV3C

$$$$
