7gpm-a
     RDKit          3D

 13 14  0  0  0  0  0  0  0  0999 V2000
   -1.9830    2.7580   28.0750 N   0  0  0  0  0  0  0  0  0  0  0  0
   -1.9390    1.6060   27.4720 C   0  0  0  0  0  0  0  0  0  0  0  0
   -1.7120    0.2830   28.1540 C   0  0  2  0  0  0  0  0  0  0  0  0
   -1.8210    0.3710   29.6820 C   0  0  0  0  0  0  0  0  0  0  0  0
   -0.4030    0.7020   30.1340 C   0  0  0  0  0  0  0  0  0  0  0  0
    0.4890    0.0140   29.1060 C   0  0  0  0  0  0  0  0  0  0  0  0
   -2.0140    1.6690   26.1060 N   0  0  0  0  0  0  0  0  0  0  0  0
   -1.3570    2.8430   23.4770 C   0  0  0  0  0  0  0  0  0  0  0  0
   -2.0730    3.6740   27.0040 O   0  0  0  0  0  0  0  0  0  0  0  0
   -2.0240    3.6470   24.5690 C   0  0  1  0  0  0  0  0  0  0  0  0
   -3.4180    4.0310   24.1490 C   0  0  0  0  0  0  0  0  0  0  0  0
   -2.0690    2.9380   25.8820 C   0  0  0  0  0  0  0  0  0  0  0  0
   -0.3650   -0.2580   27.9310 N   0  0  0  0  0  0  0  0  0  0  0  0
  2  1  2  0
  3  2  1  6
  4  3  1  0
  5  4  1  0
  6  5  1  0
  7  2  1  0
  9  1  1  0
 10  8  1  6
 11 10  1  0
 12 10  1  0
 12  9  1  0
 12  7  2  0
 13  6  1  0
 13  3  1  0
M  END
>  <id>  (1) 
70

>  <inchikey>  (1) 
WKTDGUSTKNDUEI-ZETCQYMHSA-N

>  <alias>  (1) 
7gpm-a

>  <smiles>  (1) 
CC(C)c1nc([C@@H]2CCCN2)no1

>  <path>  (1) 
/opt/xchem-fragalysis-2/maxwin/BulkDock/TARGETS/D68EV3C/aligned_files/7gpm-a/7gpm-a.pdb

>  <distance_score>  (1) 
None

>  <energy_score>  (1) 
None

>  <compound>  (1) 
WKTDGUSTKNDUEI-UHFFFAOYSA-N

>  <compound_id>  (1) 
56

>  <target>  (1) 
D68EV3C

$$$$
B0450a
     RDKit          3D

 20 22  0  0  0  0  0  0  0  0999 V2000
   -1.4050   -7.9820   31.0890 N   0  0  0  0  0  0  0  0  0  0  0  0
    6.2170   -1.1670   33.6830 C   0  0  0  0  0  0  0  0  0  0  0  0
    5.0690   -1.5100   34.4600 O   0  0  0  0  0  0  0  0  0  0  0  0
    4.1330   -2.3230   33.8800 C   0  0  0  0  0  0  0  0  0  0  0  0
    0.4450   -5.7930   33.1700 C   0  0  0  0  0  0  0  0  0  0  0  0
    2.9970   -4.4510   34.0090 C   0  0  0  0  0  0  0  0  0  0  0  0
    3.9380   -3.5690   34.5080 C   0  0  0  0  0  0  0  0  0  0  0  0
    5.4020   -5.0790   35.6500 C   0  0  0  0  0  0  0  0  0  0  0  0
    3.3870   -1.9910   32.7590 C   0  0  0  0  0  0  0  0  0  0  0  0
    2.4530   -2.8860   32.2660 C   0  0  0  0  0  0  0  0  0  0  0  0
    2.2490   -4.1200   32.8820 C   0  0  0  0  0  0  0  0  0  0  0  0
    1.2600   -5.0860   32.3450 C   0  0  0  0  0  0  0  0  0  0  0  0
    1.1710   -5.3550   30.9310 C   0  0  0  0  0  0  0  0  0  0  0  0
    0.3190   -6.2830   30.4240 C   0  0  0  0  0  0  0  0  0  0  0  0
   -0.5130   -7.0170   31.3060 C   0  0  0  0  0  0  0  0  0  0  0  0
   -1.3210   -7.6120   33.2510 C   0  0  0  0  0  0  0  0  0  0  0  0
   -1.9160   -8.3590   32.3280 N   0  0  0  0  0  0  0  0  0  0  0  0
   -1.5260   -7.6400   34.5750 N   0  0  0  0  0  0  0  0  0  0  0  0
   -0.4230   -6.7430   32.6670 N   0  0  0  0  0  0  0  0  0  0  0  0
    4.7330   -3.8180   35.5930 O   0  0  0  0  0  0  0  0  0  0  0  0
  3  2  1  0
  4  3  1  0
  7  6  1  0
  7  4  2  0
  9  4  1  0
 10  9  2  0
 11 10  1  0
 11  6  2  0
 12  5  2  0
 12 11  1  0
 13 12  1  0
 14 13  2  0
 15 14  1  0
 15  1  2  0
 17  1  1  0
 17 16  2  0
 18 16  1  0
 19 15  1  0
 19 16  1  0
 19  5  1  0
 20  8  1  0
 20  7  1  0
M  END
>  <id>  (2) 
132

>  <inchikey>  (2) 
WPZDOUWFJLYHBJ-UHFFFAOYSA-N

>  <alias>  (2) 
B0450a

>  <smiles>  (2) 
COc1ccc(-c2ccc3nnc(N)n3c2)cc1OC

>  <path>  (2) 
/opt/xchem-fragalysis-2/maxwin/BulkDock/TARGETS/D68EV3C/aligned_files/B0450a/B0450a.pdb

>  <distance_score>  (2) 
None

>  <energy_score>  (2) 
None

>  <compound>  (2) 
WPZDOUWFJLYHBJ-UHFFFAOYSA-N

>  <compound_id>  (2) 
108

>  <target>  (2) 
D68EV3C

$$$$
