B0436a
     RDKit          3D

 21 23  0  0  0  0  0  0  0  0999 V2000
    2.5550    1.2040   35.1450 N   0  0  0  0  0  0  0  0  0  0  0  0
    2.4470    2.4700   35.8470 C   0  0  0  0  0  0  0  0  0  0  0  0
    3.8150    1.7910   33.3850 O   0  0  0  0  0  0  0  0  0  0  0  0
    3.5000    0.9670   34.2420 C   0  0  0  0  0  0  0  0  0  0  0  0
   -0.5440   -6.9450   31.3470 C   0  0  0  0  0  0  0  0  0  0  0  0
   -1.3610   -7.5380   33.2920 C   0  0  0  0  0  0  0  0  0  0  0  0
    0.2450   -5.5590   33.1780 C   0  0  0  0  0  0  0  0  0  0  0  0
    1.8340   -2.4560   32.1770 C   0  0  0  0  0  0  0  0  0  0  0  0
    2.5820   -1.4000   32.6640 C   0  0  0  0  0  0  0  0  0  0  0  0
    4.1830   -0.3840   34.3360 C   0  0  0  0  0  0  0  0  0  0  0  0
    3.3490   -1.5330   33.8130 C   0  0  0  0  0  0  0  0  0  0  0  0
    3.3510   -2.7600   34.4600 C   0  0  0  0  0  0  0  0  0  0  0  0
    2.6010   -3.8220   33.9820 C   0  0  0  0  0  0  0  0  0  0  0  0
    1.8270   -3.6850   32.8320 C   0  0  0  0  0  0  0  0  0  0  0  0
    1.0010   -4.8110   32.3340 C   0  0  0  0  0  0  0  0  0  0  0  0
    0.9850   -5.1510   30.9370 C   0  0  0  0  0  0  0  0  0  0  0  0
    0.2460   -6.1770   30.4510 C   0  0  0  0  0  0  0  0  0  0  0  0
   -1.3510   -7.9780   31.1400 N   0  0  0  0  0  0  0  0  0  0  0  0
   -1.8720   -8.3530   32.3780 N   0  0  0  0  0  0  0  0  0  0  0  0
   -1.5820   -7.5670   34.6120 N   0  0  0  0  0  0  0  0  0  0  0  0
   -0.5130   -6.6100   32.6980 N   0  0  0  0  0  0  0  0  0  0  0  0
  2  1  1  0
  4  3  2  0
  4  1  1  0
  9  8  2  0
 10  4  1  0
 11  9  1  0
 11 10  1  0
 12 11  2  0
 13 12  1  0
 14  8  1  0
 14 13  2  0
 15  7  2  0
 15 14  1  0
 16 15  1  0
 17  5  1  0
 17 16  2  0
 18  5  2  0
 19 18  1  0
 19  6  2  0
 20  6  1  0
 21  5  1  0
 21  7  1  0
 21  6  1  0
M  END
>  <id>  (1) 
128

>  <inchikey>  (1) 
RWCBDYVITSXUHF-UHFFFAOYSA-N

>  <alias>  (1) 
B0436a

>  <smiles>  (1) 
CNC(=O)Cc1ccc(-c2ccc3nnc(N)n3c2)cc1

>  <path>  (1) 
/opt/xchem-fragalysis-2/maxwin/BulkDock/TARGETS/D68EV3C/aligned_files/B0436a/B0436a.pdb

>  <distance_score>  (1) 
None

>  <energy_score>  (1) 
None

>  <compound>  (1) 
RWCBDYVITSXUHF-UHFFFAOYSA-N

>  <compound_id>  (1) 
105

>  <target>  (1) 
D68EV3C

$$$$
B0454a
     RDKit          3D

 17 18  0  0  0  0  0  0  0  0999 V2000
   -0.1360   -2.8360   32.7400 N   0  0  0  0  0  0  0  0  0  0  0  0
    1.0890   -2.5900   33.4840 C   0  0  0  0  0  0  0  0  0  0  0  0
   -1.6620   -4.1990   31.8530 O   0  0  0  0  0  0  0  0  0  0  0  0
   -0.9590   -1.6410   32.4380 C   0  0  0  0  0  0  0  0  0  0  0  0
   -0.5970   -6.9850   31.0220 C   0  0  0  0  0  0  0  0  0  0  0  0
   -1.2400   -7.3280   33.0350 C   0  0  0  0  0  0  0  0  0  0  0  0
   -0.8750   -1.1730   31.0020 C   0  0  0  0  0  0  0  0  0  0  0  0
   -1.3460   -1.9580   29.9560 C   0  0  0  0  0  0  0  0  0  0  0  0
   -1.2810   -1.5080   28.6480 C   0  0  0  0  0  0  0  0  0  0  0  0
   -0.7700   -0.2600   28.3690 C   0  0  0  0  0  0  0  0  0  0  0  0
   -0.3140    0.5350   29.3960 C   0  0  0  0  0  0  0  0  0  0  0  0
   -0.3550    0.0790   30.7020 C   0  0  0  0  0  0  0  0  0  0  0  0
   -0.5920   -4.0620   32.3960 C   0  0  0  0  0  0  0  0  0  0  0  0
    0.2330   -5.3070   32.7140 C   0  0  0  0  0  0  0  0  0  0  0  0
   -0.4700   -6.5150   32.2840 N   0  0  0  0  0  0  0  0  0  0  0  0
   -1.3990   -8.0140   30.9900 N   0  0  0  0  0  0  0  0  0  0  0  0
   -1.8130   -8.2420   32.2930 N   0  0  0  0  0  0  0  0  0  0  0  0
  2  1  1  0
  4  1  1  0
  7  4  1  0
  8  7  2  0
  9  8  1  0
 10  9  2  0
 11 10  1  0
 12 11  2  0
 12  7  1  0
 13  3  2  0
 13  1  1  0
 14 13  1  0
 15  5  1  0
 15  6  1  0
 15 14  1  0
 16  5  2  0
 17 16  1  0
 17  6  2  0
M  END
>  <id>  (2) 
134

>  <inchikey>  (2) 
AVTXWKNPLMOCII-UHFFFAOYSA-N

>  <alias>  (2) 
B0454a

>  <smiles>  (2) 
CN(Cc1ccccc1)C(=O)Cn1cnnc1

>  <path>  (2) 
/opt/xchem-fragalysis-2/maxwin/BulkDock/TARGETS/D68EV3C/aligned_files/B0454a/B0454a_hippo.pdb

>  <distance_score>  (2) 
None

>  <energy_score>  (2) 
None

>  <compound>  (2) 
AVTXWKNPLMOCII-UHFFFAOYSA-N

>  <compound_id>  (2) 
109

>  <target>  (2) 
D68EV3C

$$$$
B0525a
     RDKit          3D

 22 24  0  0  0  0  0  0  0  0999 V2000
   -0.3610   -6.6630   32.1840 N   0  0  0  0  0  0  0  0  0  0  0  0
   -0.2440   -4.2140   31.9860 C   0  0  0  0  0  0  0  0  0  0  0  0
   -1.4560   -4.1850   31.8380 O   0  0  0  0  0  0  0  0  0  0  0  0
    0.4400   -5.4840   32.4920 C   0  0  0  0  0  0  0  0  0  0  0  0
   -2.1000   -0.2260   27.3740 C   0  0  0  0  0  0  0  0  0  0  0  0
   -1.7300    1.1110   27.3890 C   0  0  0  0  0  0  0  0  0  0  0  0
   -2.5480    2.1430   26.6500 C   0  0  0  0  0  0  0  0  0  0  0  0
   -0.6080    1.4680   28.1250 C   0  0  0  0  0  0  0  0  0  0  0  0
    0.1120    0.5200   28.8320 C   0  0  0  0  0  0  0  0  0  0  0  0
   -0.0270   -1.9490   31.0860 C   0  0  0  0  0  0  0  0  0  0  0  0
   -0.6120   -7.1850   30.9650 C   0  0  0  0  0  0  0  0  0  0  0  0
   -1.0810   -7.4110   33.0440 C   0  0  0  0  0  0  0  0  0  0  0  0
    2.0010   -3.0400   31.8030 C   0  0  0  0  0  0  0  0  0  0  0  0
    2.6410   -2.8870   30.4280 C   0  0  0  0  0  0  0  0  0  0  0  0
    1.9920   -1.7510   29.6320 C   0  0  0  0  0  0  0  0  0  0  0  0
    0.4650   -1.8700   29.6410 C   0  0  2  0  0  0  0  0  0  0  0  0
   -0.2690   -0.8150   28.8320 C   0  0  0  0  0  0  0  0  0  0  0  0
   -1.3860   -1.1710   28.0880 C   0  0  0  0  0  0  0  0  0  0  0  0
   -1.4450   -8.1850   31.0540 N   0  0  0  0  0  0  0  0  0  0  0  0
   -1.7500   -8.3340   32.4050 N   0  0  0  0  0  0  0  0  0  0  0  0
    0.5410   -3.1560   31.6870 N   0  0  0  0  0  0  0  0  0  0  0  0
   -1.7800    3.2800   26.2610 O   0  0  0  0  0  0  0  0  0  0  0  0
  3  2  2  0
  4  1  1  0
  4  2  1  0
  6  5  2  0
  7  6  1  0
  8  6  1  0
  9  8  2  0
 11  1  1  0
 12  1  1  0
 14 13  1  0
 15 14  1  0
 16 15  1  0
 16 10  1  0
 16 17  1  1
 17  9  1  0
 18 17  2  0
 18  5  1  0
 19 11  2  0
 20 19  1  0
 20 12  2  0
 21 13  1  0
 21 10  1  0
 21  2  1  0
 22  7  1  0
M  END
>  <id>  (3) 
141

>  <inchikey>  (3) 
QDVBRKQJPHDTEK-HNNXBMFYSA-N

>  <alias>  (3) 
B0525a

>  <smiles>  (3) 
O=C(Cn1cnnc1)N1CCC[C@H](c2ccc(CO)cc2)C1

>  <path>  (3) 
/opt/xchem-fragalysis-2/maxwin/BulkDock/TARGETS/D68EV3C/aligned_files/B0525a/B0525a_hippo.pdb

>  <distance_score>  (3) 
None

>  <energy_score>  (3) 
None

>  <compound>  (3) 
QDVBRKQJPHDTEK-UHFFFAOYSA-N

>  <compound_id>  (3) 
115

>  <target>  (3) 
D68EV3C

$$$$
B1020a
     RDKit          3D

 18 20  0  0  0  0  0  0  0  0999 V2000
    0.1430   -4.9380   37.1470 N   0  0  0  0  0  0  0  0  0  0  0  0
    1.0820   -4.2270   38.0380 C   0  0  0  0  0  0  0  0  0  0  0  0
    0.0410   -7.3940   37.2400 O   0  0  0  0  0  0  0  0  0  0  0  0
    0.3140   -3.3090   38.9720 C   0  0  0  0  0  0  0  0  0  0  0  0
   -1.7630   -3.5340   37.7390 C   0  0  0  0  0  0  0  0  0  0  0  0
   -1.2380   -4.9530   37.6610 C   0  0  0  0  0  0  0  0  0  0  0  0
    0.4380   -5.2370   34.1400 C   0  0  0  0  0  0  0  0  0  0  0  0
    0.8470   -5.8700   32.8160 C   0  0  0  0  0  0  0  0  0  0  0  0
   -0.2480   -6.7770   32.3460 C   0  0  0  0  0  0  0  0  0  0  0  0
   -1.1180   -7.3780   33.1870 C   0  0  0  0  0  0  0  0  0  0  0  0
   -1.1330   -7.1170   34.6590 C   0  0  0  0  0  0  0  0  0  0  0  0
   -0.7520   -2.5970   38.2570 N   0  0  0  0  0  0  0  0  0  0  0  0
    0.0060   -6.2800   35.0920 N   0  0  0  0  0  0  0  0  0  0  0  0
   -0.5190   -7.1920   31.0800 N   0  0  0  0  0  0  0  0  0  0  0  0
   -1.5200   -8.0470   31.1220 N   0  0  0  0  0  0  0  0  0  0  0  0
   -1.8880   -8.1640   32.4110 N   0  0  0  0  0  0  0  0  0  0  0  0
    2.0780   -6.2400   36.4020 O   0  0  0  0  0  0  0  0  0  0  0  0
    0.6680   -6.3230   36.5450 S   0  0  1  0  0  0  0  0  0  0  0  0
  2  1  1  0
  4  2  1  0
  6  5  1  0
  6  1  1  0
  8  7  1  0
  9  8  1  0
 10  9  2  0
 11 10  1  0
 12  5  1  0
 12  4  1  0
 13 11  1  0
 13  7  1  0
 14  9  1  0
 15 14  2  0
 16 15  1  0
 16 10  1  0
 18 17  2  0
 18 13  1  6
 18  3  2  0
 18  1  1  0
M  END
>  <id>  (4) 
168

>  <inchikey>  (4) 
RMTPRUDWXABPBE-UHFFFAOYSA-N

>  <alias>  (4) 
B1020a

>  <smiles>  (4) 
O=S(=O)(N1CCNCC1)N1CCc2nn[nH]c2C1

>  <path>  (4) 
/opt/xchem-fragalysis-2/maxwin/BulkDock/TARGETS/D68EV3C/aligned_files/B1020a/B1020a.pdb

>  <distance_score>  (4) 
None

>  <energy_score>  (4) 
None

>  <compound>  (4) 
RMTPRUDWXABPBE-UHFFFAOYSA-N

>  <compound_id>  (4) 
131

>  <target>  (4) 
D68EV3C

$$$$
B1361a
     RDKit          3D

 20 21  0  0  0  0  0  0  0  0999 V2000
    0.0880   -2.8870   31.1210 N   0  0  0  0  0  0  0  0  0  0  0  0
    0.2710   -3.7500   29.9490 C   0  0  0  0  0  0  0  0  0  0  0  0
   -1.0960   -1.2220   32.4690 O   0  0  0  0  0  0  0  0  0  0  0  0
    1.0590   -4.9890   30.3170 C   0  0  0  0  0  0  0  0  0  0  0  0
   -1.5290    1.0890   28.8830 C   0  0  0  0  0  0  0  0  0  0  0  0
   -1.3130    0.2980   29.9990 C   0  0  0  0  0  0  0  0  0  0  0  0
    0.3100   -5.7580   31.3620 C   0  0  0  0  0  0  0  0  0  0  0  0
   -0.0910   -6.2040   33.5660 C   0  0  0  0  0  0  0  0  0  0  0  0
   -0.9580   -7.2300   33.2420 C   0  0  0  0  0  0  0  0  0  0  0  0
   -1.1300   -7.4580   31.8750 C   0  0  0  0  0  0  0  0  0  0  0  0
   -1.5270   -1.0700   29.9190 C   0  0  0  0  0  0  0  0  0  0  0  0
   -1.9390   -1.6510   28.7310 C   0  0  0  0  0  0  0  0  0  0  0  0
   -2.1590   -0.8560   27.6210 C   0  0  0  0  0  0  0  0  0  0  0  0
   -1.9690    0.5160   27.6980 C   0  0  0  0  0  0  0  0  0  0  0  0
    0.5560   -5.4580   32.6610 N   0  0  0  0  0  0  0  0  0  0  0  0
   -0.5150   -6.7200   30.9310 N   0  0  0  0  0  0  0  0  0  0  0  0
   -2.3530   -3.0450   31.3800 O   0  0  0  0  0  0  0  0  0  0  0  0
   -1.8740   -8.4400   31.4740 O   0  0  0  0  0  0  0  0  0  0  0  0
   -2.2820    1.2950   26.6180 O   0  0  0  0  0  0  0  0  0  0  0  0
   -1.2920   -2.0830   31.3410 S   0  0  1  0  0  0  0  0  0  0  0  0
  2  1  1  0
  4  2  1  0
  6  5  2  0
  7  4  1  0
  9  8  2  0
 10  9  1  0
 11  6  1  0
 12 11  2  0
 13 12  1  0
 14 13  2  0
 14  5  1  0
 15  7  2  0
 15  8  1  0
 16 10  2  0
 16  7  1  0
 18 10  1  0
 19 14  1  0
 20 17  2  0
 20 11  1  0
 20  3  2  0
 20  1  1  6
M  END
>  <id>  (5) 
188

>  <inchikey>  (5) 
CINSIERXHZAWIH-UHFFFAOYSA-N

>  <alias>  (5) 
B1361a

>  <smiles>  (5) 
O=S(=O)(NCCc1nccc(O)n1)c1ccc(O)cc1

>  <path>  (5) 
/opt/xchem-fragalysis-2/maxwin/BulkDock/TARGETS/D68EV3C/aligned_files/B1361a/B1361a_hippo.pdb

>  <distance_score>  (5) 
None

>  <energy_score>  (5) 
None

>  <compound>  (5) 
CINSIERXHZAWIH-UHFFFAOYSA-N

>  <compound_id>  (5) 
147

>  <target>  (5) 
D68EV3C

$$$$
