B0691a
     RDKit          3D

 22 25  0  0  0  0  0  0  0  0999 V2000
    0.2370   -5.8500   34.8320 N   0  0  0  0  0  0  0  0  0  0  0  0
    1.3360   -6.0070   37.0170 C   0  0  2  0  0  0  0  0  0  0  0  0
   -0.0540   -8.1010   36.1650 O   0  0  0  0  0  0  0  0  0  0  0  0
    1.4160   -6.7990   38.3020 C   0  0  0  0  0  0  0  0  0  0  0  0
    0.7070   -4.9470   32.6090 C   0  0  0  0  0  0  0  0  0  0  0  0
    0.6360   -5.1000   31.2080 C   0  0  0  0  0  0  0  0  0  0  0  0
   -0.1310   -6.0820   30.6520 C   0  0  0  0  0  0  0  0  0  0  0  0
   -0.8850   -6.9440   31.4810 C   0  0  0  0  0  0  0  0  0  0  0  0
   -1.5910   -7.7620   33.3790 C   0  0  0  0  0  0  0  0  0  0  0  0
    2.6130   -7.3900   38.6850 C   0  0  0  0  0  0  0  0  0  0  0  0
    2.6730   -8.2200   39.7930 C   0  0  0  0  0  0  0  0  0  0  0  0
    1.5440   -8.4600   40.5410 C   0  0  0  0  0  0  0  0  0  0  0  0
    0.3480   -7.8640   40.1870 C   0  0  0  0  0  0  0  0  0  0  0  0
    0.2830   -7.0390   39.0740 C   0  0  0  0  0  0  0  0  0  0  0  0
    0.3820   -4.8060   36.9890 C   0  0  0  0  0  0  0  0  0  0  0  0
   -0.1050   -4.6060   35.5590 C   0  0  0  0  0  0  0  0  0  0  0  0
    0.0060   -5.8030   33.4410 C   0  0  0  0  0  0  0  0  0  0  0  0
   -1.6460   -7.9910   31.2170 N   0  0  0  0  0  0  0  0  0  0  0  0
   -2.0800   -8.5100   32.4320 N   0  0  0  0  0  0  0  0  0  0  0  0
   -0.8110   -6.7710   32.8610 N   0  0  0  0  0  0  0  0  0  0  0  0
    2.1190   -7.6800   35.1020 O   0  0  0  0  0  0  0  0  0  0  0  0
    0.9230   -7.1620   35.7050 S   0  0  1  0  0  0  0  0  0  0  0  0
  2  4  1  1
  6  5  1  0
  7  6  2  0
  8  7  1  0
 10  4  2  0
 11 10  1  0
 12 11  2  0
 13 12  1  0
 14 13  2  0
 14  4  1  0
 15  2  1  0
 16  1  1  0
 16 15  1  0
 17  1  1  0
 17  5  2  0
 18  8  2  0
 19 18  1  0
 19  9  2  0
 20  8  1  0
 20 17  1  0
 20  9  1  0
 22 21  2  0
 22  3  2  0
 22  2  1  0
 22  1  1  6
M  END
>  <id>  (1) 
144

>  <inchikey>  (1) 
YWAUSXIRKVBYLY-ZDUSSCGKSA-N

>  <alias>  (1) 
B0691a

>  <smiles>  (1) 
O=S1(=O)[C@H](c2ccccc2)CCN1c1cccc2nncn12

>  <path>  (1) 
/opt/xchem-fragalysis-2/maxwin/BulkDock/TARGETS/D68EV3C/aligned_files/B0691a/B0691a.pdb

>  <distance_score>  (1) 
None

>  <energy_score>  (1) 
None

>  <compound>  (1) 
v76

>  <compound_id>  (1) 
117

>  <target>  (1) 
D68EV3C

$$$$
B1219a
     RDKit          3D

 20 23  0  0  0  0  0  0  0  0999 V2000
    2.4450   -3.5400   30.0940 N   0  0  0  0  0  0  0  0  0  0  0  0
   -0.3640   -1.1570   28.2900 C   0  0  0  0  0  0  0  0  0  0  0  0
    0.9420   -0.8350   27.9960 C   0  0  0  0  0  0  0  0  0  0  0  0
   -0.3530   -7.3690   31.1520 C   0  0  0  0  0  0  0  0  0  0  0  0
    0.2980   -2.9840   29.6280 C   0  0  0  0  0  0  0  0  0  0  0  0
   -0.7310   -2.2250   29.0790 C   0  0  0  0  0  0  0  0  0  0  0  0
    1.9540   -1.6110   28.5380 C   0  0  0  0  0  0  0  0  0  0  0  0
    1.6340   -2.6830   29.3670 C   0  0  0  0  0  0  0  0  0  0  0  0
    1.6340   -4.3110   30.7630 C   0  0  0  0  0  0  0  0  0  0  0  0
    0.9270   -6.0560   32.9080 C   0  0  0  0  0  0  0  0  0  0  0  0
    0.9330   -5.7320   34.2240 C   0  0  0  0  0  0  0  0  0  0  0  0
   -0.0590   -6.2760   35.0830 C   0  0  0  0  0  0  0  0  0  0  0  0
   -1.0270   -7.1150   34.6040 C   0  0  0  0  0  0  0  0  0  0  0  0
   -1.0530   -7.4400   33.2240 C   0  0  0  0  0  0  0  0  0  0  0  0
   -1.3490   -0.3480   27.8130 F   0  0  0  0  0  0  0  0  0  0  0  0
   -1.8590   -8.2010   32.4890 N   0  0  0  0  0  0  0  0  0  0  0  0
   -1.4010   -8.1450   31.1740 N   0  0  0  0  0  0  0  0  0  0  0  0
   -0.0720   -6.8940   32.4010 N   0  0  0  0  0  0  0  0  0  0  0  0
    0.3260   -4.0470   30.5310 N   0  0  0  0  0  0  0  0  0  0  0  0
    2.2130   -5.5520   31.8600 S   0  0  0  0  0  0  0  0  0  0  0  0
  3  2  2  0
  6  5  2  0
  6  2  1  0
  7  3  1  0
  8  7  2  0
  8  5  1  0
  8  1  1  0
  9  1  2  0
 11 10  2  0
 12 11  1  0
 13 12  2  0
 14 13  1  0
 15  2  1  0
 16 14  2  0
 17 16  1  0
 17  4  2  0
 18  4  1  0
 18 14  1  0
 18 10  1  0
 19  9  1  0
 19  5  1  0
 20 10  1  0
 20  9  1  0
M  END
>  <id>  (2) 
180

>  <inchikey>  (2) 
RAAZIUQROHXXRO-UHFFFAOYSA-N

>  <alias>  (2) 
B1219a

>  <smiles>  (2) 
Fc1ccc2nc(Sc3cccc4nncn34)[nH]c2c1

>  <path>  (2) 
/opt/xchem-fragalysis-2/maxwin/BulkDock/TARGETS/D68EV3C/aligned_files/B1219a/B1219a.pdb

>  <distance_score>  (2) 
None

>  <energy_score>  (2) 
None

>  <compound>  (2) 
RAAZIUQROHXXRO-UHFFFAOYSA-N

>  <compound_id>  (2) 
142

>  <target>  (2) 
D68EV3C

$$$$
