B0738a
     RDKit          3D

 20 23  0  0  0  0  0  0  0  0999 V2000
    5.1460   -9.7160   36.7120 N   0  0  0  0  0  0  0  0  0  0  0  0
    5.0820   -9.7550   38.9290 C   0  0  0  0  0  0  0  0  0  0  0  0
    2.3260   -7.3770   36.6780 O   0  0  0  0  0  0  0  0  0  0  0  0
    5.7020  -10.2780   37.8250 C   0  0  0  0  0  0  0  0  0  0  0  0
   -1.3210   -7.7070   33.4480 C   0  0  0  0  0  0  0  0  0  0  0  0
    4.1120   -8.8390   38.4740 C   0  0  0  0  0  0  0  0  0  0  0  0
    4.1590   -8.8360   37.0830 C   0  0  0  0  0  0  0  0  0  0  0  0
    3.3220   -8.1590   36.1530 C   0  0  0  0  0  0  0  0  0  0  0  0
    1.6840   -6.9580   35.5550 C   0  0  0  0  0  0  0  0  0  0  0  0
    0.2650   -5.7560   33.8330 C   0  0  0  0  0  0  0  0  0  0  0  0
    0.9950   -4.8230   33.1710 C   0  0  0  0  0  0  0  0  0  0  0  0
    1.0650   -4.8500   31.7500 C   0  0  0  0  0  0  0  0  0  0  0  0
    0.3980   -5.8040   31.0250 C   0  0  0  0  0  0  0  0  0  0  0  0
   -0.3950   -6.7660   31.7000 C   0  0  0  0  0  0  0  0  0  0  0  0
    3.2940   -8.2030   34.8670 N   0  0  0  0  0  0  0  0  0  0  0  0
    2.2080   -7.4170   34.4740 N   0  0  0  0  0  0  0  0  0  0  0  0
   -1.1830   -7.7480   31.2710 N   0  0  0  0  0  0  0  0  0  0  0  0
   -1.7730   -8.3330   32.3950 N   0  0  0  0  0  0  0  0  0  0  0  0
   -0.4510   -6.7130   33.0920 N   0  0  0  0  0  0  0  0  0  0  0  0
    0.3100   -5.8750   35.5970 S   0  0  0  0  0  0  0  0  0  0  0  0
  4  1  1  0
  4  2  2  0
  6  2  1  0
  7  1  1  0
  7  6  2  0
  8  7  1  0
  8  3  1  0
  9  3  1  0
 11 10  2  0
 12 11  1  0
 13 12  2  0
 14 13  1  0
 15  8  2  0
 16 15  1  0
 16  9  2  0
 17 14  2  0
 18 17  1  0
 18  5  2  0
 19 14  1  0
 19 10  1  0
 19  5  1  0
 20 10  1  0
 20  9  1  0
M  END
>  <id>  (1) 
148

>  <inchikey>  (1) 
LJMUUEZBPOHHNK-UHFFFAOYSA-N

>  <alias>  (1) 
B0738a

>  <smiles>  (1) 
c1c[nH]c(-c2nnc(Sc3cccc4nncn34)o2)c1

>  <path>  (1) 
/opt/xchem-fragalysis-2/maxwin/BulkDock/TARGETS/D68EV3C/aligned_files/B0738a/B0738a.pdb

>  <distance_score>  (1) 
None

>  <energy_score>  (1) 
None

>  <compound>  (1) 
LJMUUEZBPOHHNK-UHFFFAOYSA-N

>  <compound_id>  (1) 
120

>  <target>  (1) 
D68EV3C

$$$$
B1463a
     RDKit          3D

 20 21  0  0  0  0  0  0  0  0999 V2000
   -0.3120   -7.3570   31.3010 N   0  0  0  0  0  0  0  0  0  0  0  0
   -0.3680   -6.6230   35.4880 C   0  0  0  0  0  0  0  0  0  0  0  0
   -2.0940   -8.7200   31.4470 O   0  0  0  0  0  0  0  0  0  0  0  0
   -0.4080   -6.8910   34.0150 C   0  0  0  0  0  0  0  0  0  0  0  0
   -1.3090   -2.1020   29.3970 C   0  0  0  0  0  0  0  0  0  0  0  0
   -1.3430   -7.7430   33.4530 C   0  0  0  0  0  0  0  0  0  0  0  0
   -1.2440   -7.9490   32.0550 C   0  0  0  0  0  0  0  0  0  0  0  0
    0.5150   -6.5340   31.9520 C   0  0  0  0  0  0  0  0  0  0  0  0
    1.4620   -5.7650   31.0830 C   0  0  0  0  0  0  0  0  0  0  0  0
    0.6900   -4.5500   30.6250 C   0  0  0  0  0  0  0  0  0  0  0  0
   -0.0810   -0.6280   30.9280 C   0  0  0  0  0  0  0  0  0  0  0  0
   -0.3860    0.3740   29.8490 C   0  0  0  0  0  0  0  0  0  0  0  0
   -0.1770   -1.5770   28.5490 C   0  0  0  0  0  0  0  0  0  0  0  0
    0.4530   -3.6230   31.7380 N   0  0  0  0  0  0  0  0  0  0  0  0
   -1.0390   -1.7430   30.8030 N   0  0  0  0  0  0  0  0  0  0  0  0
    0.5220   -6.2760   33.2660 N   0  0  0  0  0  0  0  0  0  0  0  0
   -0.9420   -2.2360   33.2160 O   0  0  0  0  0  0  0  0  0  0  0  0
   -2.0160   -3.8560   31.6970 O   0  0  0  0  0  0  0  0  0  0  0  0
   -0.1250   -0.1510   28.5470 O   0  0  0  0  0  0  0  0  0  0  0  0
   -0.9890   -2.8990   31.9520 S   0  0  2  0  0  0  0  0  0  0  0  0
  4  2  1  0
  6  4  2  0
  7  3  1  0
  7  1  2  0
  7  6  1  0
  8  1  1  0
  9  8  1  0
 10  9  1  0
 12 11  1  0
 13  5  1  0
 14 10  1  0
 15 11  1  0
 15  5  1  0
 16  8  2  0
 16  4  1  0
 19 13  1  0
 19 12  1  0
 20 18  2  0
 20 15  1  0
 20 14  1  6
 20 17  2  0
M  END
>  <id>  (2) 
202

>  <inchikey>  (2) 
BDTWKIPTSXXQQL-UHFFFAOYSA-N

>  <alias>  (2) 
B1463a

>  <smiles>  (2) 
Cc1cc(O)nc(CCNS(=O)(=O)N2CCOCC2)n1

>  <path>  (2) 
/opt/xchem-fragalysis-2/maxwin/BulkDock/TARGETS/D68EV3C/aligned_files/B1463a/B1463a.pdb

>  <distance_score>  (2) 
None

>  <energy_score>  (2) 
None

>  <compound>  (2) 
BDTWKIPTSXXQQL-UHFFFAOYSA-N

>  <compound_id>  (2) 
156

>  <target>  (2) 
D68EV3C

$$$$
