B0931a
     RDKit          3D

 17 19  0  0  0  0  0  0  0  0999 V2000
    0.1100   -7.1770   40.6300 N   0  0  0  0  0  0  0  0  0  0  0  0
    1.3360   -5.0850   32.1850 C   0  0  0  0  0  0  0  0  0  0  0  0
    1.0880   -5.3860   33.5440 C   0  0  0  0  0  0  0  0  0  0  0  0
   -0.2940   -6.7220   31.5160 C   0  0  0  0  0  0  0  0  0  0  0  0
    0.6700   -5.7350   31.1840 C   0  0  0  0  0  0  0  0  0  0  0  0
    0.1700   -6.3280   33.8790 C   0  0  0  0  0  0  0  0  0  0  0  0
    1.0230   -6.0070   36.5900 C   0  0  0  0  0  0  0  0  0  0  0  0
    0.7160   -6.4140   38.0040 C   0  0  0  0  0  0  0  0  0  0  0  0
    0.8710   -7.7250   38.4240 C   0  0  0  0  0  0  0  0  0  0  0  0
    0.5580   -8.0580   39.7280 C   0  0  0  0  0  0  0  0  0  0  0  0
   -0.0240   -5.9110   40.2160 C   0  0  0  0  0  0  0  0  0  0  0  0
    0.2580   -5.4930   38.9300 C   0  0  0  0  0  0  0  0  0  0  0  0
   -1.4980   -7.9500   32.8690 C   0  0  0  0  0  0  0  0  0  0  0  0
   -0.5300   -6.9850   32.8610 N   0  0  0  0  0  0  0  0  0  0  0  0
   -1.8360   -8.2790   31.6530 N   0  0  0  0  0  0  0  0  0  0  0  0
   -1.0730   -7.5060   30.7780 N   0  0  0  0  0  0  0  0  0  0  0  0
   -0.1950   -6.8350   35.5170 S   0  0  0  0  0  0  0  0  0  0  0  0
  3  2  1  0
  5  4  1  0
  5  2  2  0
  6  3  2  0
  8  7  1  0
  9  8  2  0
 10  9  1  0
 10  1  2  0
 11  1  1  0
 12  8  1  0
 12 11  2  0
 14  4  1  0
 14 13  1  0
 14  6  1  0
 15 13  2  0
 16 15  1  0
 16  4  2  0
 17  7  1  0
 17  6  1  0
M  END
>  <id>  (1) 
164

>  <inchikey>  (1) 
YKUFZDVJLQYFAS-UHFFFAOYSA-N

>  <alias>  (1) 
B0931a

>  <smiles>  (1) 
c1cc(SCc2ccncc2)n2cnnc2c1

>  <path>  (1) 
/opt/xchem-fragalysis-2/maxwin/BulkDock/TARGETS/D68EV3C/aligned_files/B0931a/B0931a.pdb

>  <distance_score>  (1) 
None

>  <energy_score>  (1) 
None

>  <compound>  (1) 
YKUFZDVJLQYFAS-UHFFFAOYSA-N

>  <compound_id>  (1) 
129

>  <target>  (1) 
D68EV3C

$$$$
B1457a
     RDKit          3D

 19 20  0  0  0  0  0  0  0  0999 V2000
   -0.4490   -6.9810   31.1520 N   0  0  0  0  0  0  0  0  0  0  0  0
   -0.4180   -6.3460   35.3480 C   0  0  0  0  0  0  0  0  0  0  0  0
   -1.9930   -8.6210   31.3940 O   0  0  0  0  0  0  0  0  0  0  0  0
   -0.4650   -6.6080   33.8780 C   0  0  0  0  0  0  0  0  0  0  0  0
   -1.2890   -7.5780   33.3390 C   0  0  0  0  0  0  0  0  0  0  0  0
   -1.2360   -7.7250   31.9500 C   0  0  0  0  0  0  0  0  0  0  0  0
    0.2940   -6.0670   31.7860 C   0  0  0  0  0  0  0  0  0  0  0  0
    1.1380   -5.1730   30.9290 C   0  0  0  0  0  0  0  0  0  0  0  0
    0.3330   -3.9480   30.5190 C   0  0  0  0  0  0  0  0  0  0  0  0
   -1.3020   -1.3260   30.2100 C   0  0  0  0  0  0  0  0  0  0  0  0
   -1.5270   -1.6670   28.9150 C   0  0  0  0  0  0  0  0  0  0  0  0
   -0.9600    0.6400   29.2490 C   0  0  0  0  0  0  0  0  0  0  0  0
   -0.1360   -3.1940   31.6930 N   0  0  0  0  0  0  0  0  0  0  0  0
   -0.9610    0.0220   30.3860 N   0  0  0  0  0  0  0  0  0  0  0  0
    0.3320   -5.8500   33.1050 N   0  0  0  0  0  0  0  0  0  0  0  0
   -2.5650   -3.1380   31.3860 O   0  0  0  0  0  0  0  0  0  0  0  0
   -1.4440   -1.3990   32.7330 O   0  0  0  0  0  0  0  0  0  0  0  0
   -1.4530   -2.2660   31.5950 S   0  0  2  0  0  0  0  0  0  0  0  0
   -1.3490   -0.3160   27.8890 S   0  0  0  0  0  0  0  0  0  0  0  0
  4  2  1  0
  5  4  2  0
  6  3  1  0
  6  1  2  0
  6  5  1  0
  7  1  1  0
  8  7  1  0
  9  8  1  0
 11 10  2  0
 13  9  1  0
 14 12  2  0
 14 10  1  0
 15  7  2  0
 15  4  1  0
 18 16  2  0
 18 13  1  1
 18 10  1  0
 18 17  2  0
 19 12  1  0
 19 11  1  0
M  END
>  <id>  (2) 
196

>  <inchikey>  (2) 
NFFNEEJNFLWXMI-UHFFFAOYSA-N

>  <alias>  (2) 
B1457a

>  <smiles>  (2) 
Cc1cc(O)nc(CCNS(=O)(=O)c2cscn2)n1

>  <path>  (2) 
/opt/xchem-fragalysis-2/maxwin/BulkDock/TARGETS/D68EV3C/aligned_files/B1457a/B1457a_hippo.pdb

>  <distance_score>  (2) 
None

>  <energy_score>  (2) 
None

>  <compound>  (2) 
NFFNEEJNFLWXMI-UHFFFAOYSA-N

>  <compound_id>  (2) 
153

>  <target>  (2) 
D68EV3C

$$$$
