ver_1.2
     RDKit          3D

 25 28  0  0  0  0  0  0  0  0999 V2000
    0.0275   -3.1900    1.1725 C   0  0  0  0  0  0  0  0  0  0  0  0
   -0.8535   -2.7356    0.0341 C   0  0  0  0  0  0  0  0  0  0  0  0
   -0.7812   -0.9540   -0.1222 S   0  0  0  0  0  0  0  0  0  0  0  0
   -1.2418   -0.3693    1.1616 O   0  0  0  0  0  0  0  0  0  0  0  0
   -1.6371   -0.4636   -1.3138 N   0  0  0  0  0  0  0  0  0  0  0  0
   -2.8841    0.1710   -1.0571 C   0  0  0  0  0  0  0  0  0  0  0  0
   -2.8605    1.5503   -0.9091 C   0  0  0  0  0  0  0  0  0  0  0  0
   -4.0854    2.1616   -0.6582 C   0  0  0  0  0  0  0  0  0  0  0  0
   -5.2295    1.4619   -0.5636 N   0  0  0  0  0  0  0  0  0  0  0  0
   -6.4944    1.8622   -0.3299 C   0  0  0  0  0  0  0  0  0  0  0  0
   -7.2947    0.7808   -0.3288 N   0  0  0  0  0  0  0  0  0  0  0  0
   -6.5398   -0.2566   -0.5560 N   0  0  0  0  0  0  0  0  0  0  0  0
   -5.2680    0.1181   -0.7055 C   0  0  0  0  0  0  0  0  0  0  0  0
   -4.0749   -0.5466   -0.9574 C   0  0  0  0  0  0  0  0  0  0  0  0
    0.8492   -0.4767   -0.4347 N   0  0  0  0  0  0  0  0  0  0  0  0
    1.6739   -1.0079    0.6168 C   0  0  0  0  0  0  0  0  0  0  0  0
    3.1023   -0.6420    0.4249 C   0  0  0  0  0  0  0  0  0  0  0  0
    3.8857   -1.5288   -0.3222 C   0  0  0  0  0  0  0  0  0  0  0  0
    5.2384   -1.2374   -0.5365 C   0  0  0  0  0  0  0  0  0  0  0  0
    5.7894   -0.0841   -0.0130 C   0  0  0  0  0  0  0  0  0  0  0  0
    5.0128    0.8088    0.7358 C   0  0  0  0  0  0  0  0  0  0  0  0
    3.6621    0.5086    0.9443 C   0  0  0  0  0  0  0  0  0  0  0  0
    5.8389    1.8575    1.1189 O   0  0  0  0  0  0  0  0  0  0  0  0
    7.1011    1.7570    0.4958 C   0  0  0  0  0  0  0  0  0  0  0  0
    7.0635    0.4546   -0.0589 O   0  0  0  0  0  0  0  0  0  0  0  0
  1  2  1  0
  2  3  1  0
  3  4  2  0
  3  5  2  0
  5  6  1  0
  6  7  1  0
  7  8  2  0
  8  9  1  0
  9 10  1  0
 10 11  2  0
 11 12  1  0
 12 13  2  0
 13 14  1  0
  3 15  1  0
 15 16  1  0
 16 17  1  0
 17 18  2  0
 18 19  1  0
 19 20  2  0
 20 21  1  0
 21 22  2  0
 21 23  1  0
 23 24  1  0
 24 25  1  0
 14  6  2  0
 22 17  1  0
 13  9  1  0
 25 20  1  0
M  END
>  <ref_url>  (1) 
https://github.com/mwinokan/BulkDock

>  <submitter_name>  (1) 
Max Winokan

>  <submitter_email>  (1) 
max.winokan@diamond.ac.uk

>  <submitter_institution>  (1) 
DLS

>  <generation_date>  (1) 
2025-03-06

>  <method>  (1) 
MW_manual

>  <SLURM_JOB_ID>  (1) 
SLURM_JOB_ID

>  <SLURM_JOB_NAME>  (1) 
SLURM_JOB_NAME

>  <csv_name>  (1) 
csv_name

>  <scratch_subdir>  (1) 
scratch_subdir

>  <fragmenstein_runtime>  (1) 
fragmenstein_runtime

>  <fragmenstein_outcome>  (1) 
fragmenstein_outcome

>  <fragmenstein_mode>  (1) 
fragmenstein_mode

>  <fragmenstein_error>  (1) 
fragmenstein_error

>  <exports>  (1) 
exports

>  <score_inspiration>  (1) 
score_inspiration

>  <HIPPO Pose ID>  (1) 
HIPPO Pose ID

>  <HIPPO Compound ID>  (1) 
HIPPO Compound ID

>  <smiles>  (1) 
smiles

>  <ref_pdb>  (1) 
protein reference

>  <ref_mols>  (1) 
fragment inspirations

>  <original ID>  (1) 
original ID

>  <compound inchikey>  (1) 
compound inchikey

>  <distance_score>  (1) 
distance_score

>  <energy_score>  (1) 
energy_score

$$$$
7399
     RDKit          3D

 25 28  0  0  0  0  0  0  0  0999 V2000
   -2.9293   -1.6001   32.5326 C   0  0  0  0  0  0  0  0  0  0  0  0
   -1.7331   -2.5245   32.6154 C   0  0  0  0  0  0  0  0  0  0  0  0
   -0.4441   -2.1026   31.4601 S   0  0  1  0  0  0  0  0  0  0  0  0
   -0.3430   -0.6687   31.4512 O   0  0  0  0  0  0  0  0  0  0  0  0
    0.7542   -3.0416   31.6306 N   0  0  0  0  0  0  0  0  0  0  0  0
    0.5599   -4.4329   32.0186 C   0  0  0  0  0  0  0  0  0  0  0  0
    0.6178   -4.8009   33.4319 C   0  0  0  0  0  0  0  0  0  0  0  0
    0.0470   -5.9468   33.8332 C   0  0  0  0  0  0  0  0  0  0  0  0
   -0.5106   -6.7698   32.8663 N   0  0  0  0  0  0  0  0  0  0  0  0
   -1.2934   -7.8716   32.9870 C   0  0  0  0  0  0  0  0  0  0  0  0
   -1.6095   -8.3416   31.8025 N   0  0  0  0  0  0  0  0  0  0  0  0
   -1.0564   -7.5047   30.8620 N   0  0  0  0  0  0  0  0  0  0  0  0
   -0.4267   -6.5438   31.5042 C   0  0  0  0  0  0  0  0  0  0  0  0
    0.1537   -5.3200   31.0848 C   0  0  0  0  0  0  0  0  0  0  0  0
   -1.0223   -2.5012   29.9254 N   0  0  0  0  0  0  0  0  0  0  0  0
   -0.1987   -2.2285   28.7515 C   0  0  0  0  0  0  0  0  0  0  0  0
   -0.3995   -0.8225   28.2435 C   0  0  0  0  0  0  0  0  0  0  0  0
    0.5631    0.1822   28.4844 C   0  0  0  0  0  0  0  0  0  0  0  0
    0.3536    1.4947   28.0493 C   0  0  0  0  0  0  0  0  0  0  0  0
   -0.8238    1.7722   27.3898 C   0  0  0  0  0  0  0  0  0  0  0  0
   -1.7670    0.8031   27.1553 C   0  0  0  0  0  0  0  0  0  0  0  0
   -1.5850   -0.4979   27.5638 C   0  0  0  0  0  0  0  0  0  0  0  0
   -2.8485    1.2809   26.4868 O   0  0  0  0  0  0  0  0  0  0  0  0
   -2.5181    2.6802   26.3989 C   0  0  0  0  0  0  0  0  0  0  0  0
   -1.1946    2.9828   26.8949 O   0  0  0  0  0  0  0  0  0  0  0  0
  1  2  1  0
  3  2  1  1
  3  4  2  0
  3  5  2  0
  5  6  1  0
  6  7  1  0
  7  8  2  0
  8  9  1  0
  9 10  1  0
 10 11  2  0
 11 12  1  0
 12 13  2  0
 13 14  1  0
  3 15  1  0
 15 16  1  0
 16 17  1  0
 17 18  2  0
 18 19  1  0
 19 20  2  0
 20 21  1  0
 21 22  2  0
 21 23  1  0
 23 24  1  0
 24 25  1  0
 14  6  2  0
 22 17  1  0
 13  9  1  0
 25 20  1  0
M  END
>  <fragmenstein_runtime>  (1) 
2.652046

>  <HIPPO Compound ID>  (1) 
7272

>  <tags>  (1) 
Fragmenstein placed

>  <fragmenstein_error>  (1) 
None

>  <ref_pdb>  (1) 
7gp9-a

>  <original ID>  (1) 
NAVWXWKDBNZCHT-VWLOTQADSA-N

>  <HIPPO Pose ID>  (1) 
7399

>  <SLURM_JOB_ID>  (1) 
351448

>  <scratch_subdir>  (1) 
/opt/xchem-fragalysis-2/maxwin/BulkDock/SCRATCH/351448/C7272-P13

>  <name>  (1) 
NAVWXWKDBNZCHT-VWLOTQADSA-N

>  <original SMILES>  (1) 
CC[S@@](=O)(=Nc1ccn2cnnc2c1)NCc1ccc2c(c1)OCO2

>  <alias>  (1) 
None

>  <distance_score>  (1) 
0.914702

>  <ref_mols>  (1) 
7gp9-a,B0738a

>  <fragmenstein_outcome>  (1) 
acceptable

>  <score_inspiration>  (1) 
0.794673

>  <inchikey>  (1) 
NAVWXWKDBNZCHT-VWLOTQADSA-N

>  <fragmenstein_mode>  (1) 
expansion

>  <energy_score>  (1) 
-47.527454

>  <csv_name>  (1) 
D68EV3C_iter1_manuals_split1000_batch000.csv

$$$$
7400
     RDKit          3D

 25 28  0  0  0  0  0  0  0  0999 V2000
   -2.8311   -1.3544   32.5846 C   0  0  0  0  0  0  0  0  0  0  0  0
   -1.8027   -2.4671   32.5869 C   0  0  0  0  0  0  0  0  0  0  0  0
   -0.4011   -2.1087   31.5465 S   0  0  1  0  0  0  0  0  0  0  0  0
   -0.2104   -0.6842   31.5584 O   0  0  0  0  0  0  0  0  0  0  0  0
    0.7267   -3.1143   31.7823 N   0  0  0  0  0  0  0  0  0  0  0  0
    0.4584   -4.4870   32.1763 C   0  0  0  0  0  0  0  0  0  0  0  0
    0.4126   -4.8414   33.5928 C   0  0  0  0  0  0  0  0  0  0  0  0
   -0.1685   -5.9927   33.9645 C   0  0  0  0  0  0  0  0  0  0  0  0
   -0.6387   -6.8367   32.9701 N   0  0  0  0  0  0  0  0  0  0  0  0
   -1.3933   -7.9645   33.0411 C   0  0  0  0  0  0  0  0  0  0  0  0
   -1.5987   -8.4494   31.8369 N   0  0  0  0  0  0  0  0  0  0  0  0
   -0.9918   -7.6095   30.9356 N   0  0  0  0  0  0  0  0  0  0  0  0
   -0.4533   -6.6194   31.6151 C   0  0  0  0  0  0  0  0  0  0  0  0
    0.1279   -5.3856   31.2253 C   0  0  0  0  0  0  0  0  0  0  0  0
   -0.8935   -2.4625   29.9706 N   0  0  0  0  0  0  0  0  0  0  0  0
   -0.0046   -2.1426   28.8594 C   0  0  0  0  0  0  0  0  0  0  0  0
   -0.2053   -0.7316   28.3636 C   0  0  0  0  0  0  0  0  0  0  0  0
    0.7479    0.2742   28.6303 C   0  0  0  0  0  0  0  0  0  0  0  0
    0.5475    1.5876   28.1926 C   0  0  0  0  0  0  0  0  0  0  0  0
   -0.6118    1.8668   27.5034 C   0  0  0  0  0  0  0  0  0  0  0  0
   -1.5467    0.8979   27.2434 C   0  0  0  0  0  0  0  0  0  0  0  0
   -1.3731   -0.4039   27.6562 C   0  0  0  0  0  0  0  0  0  0  0  0
   -2.6040    1.3766   26.5373 O   0  0  0  0  0  0  0  0  0  0  0  0
   -2.2829    2.7788   26.4799 C   0  0  0  0  0  0  0  0  0  0  0  0
   -0.9671    3.0764   26.9952 O   0  0  0  0  0  0  0  0  0  0  0  0
  1  2  1  0
  3  2  1  1
  3  4  2  0
  3  5  2  0
  5  6  1  0
  6  7  1  0
  7  8  2  0
  8  9  1  0
  9 10  1  0
 10 11  2  0
 11 12  1  0
 12 13  2  0
 13 14  1  0
  3 15  1  0
 15 16  1  0
 16 17  1  0
 17 18  2  0
 18 19  1  0
 19 20  2  0
 20 21  1  0
 21 22  2  0
 21 23  1  0
 23 24  1  0
 24 25  1  0
 14  6  2  0
 22 17  1  0
 13  9  1  0
 25 20  1  0
M  END
>  <fragmenstein_runtime>  (2) 
2.315885

>  <HIPPO Compound ID>  (2) 
7272

>  <tags>  (2) 
Fragmenstein placed

>  <fragmenstein_error>  (2) 
None

>  <ref_pdb>  (2) 
B0738a

>  <original ID>  (2) 
NAVWXWKDBNZCHT-VWLOTQADSA-N

>  <HIPPO Pose ID>  (2) 
7400

>  <SLURM_JOB_ID>  (2) 
351448

>  <scratch_subdir>  (2) 
/opt/xchem-fragalysis-2/maxwin/BulkDock/SCRATCH/351448/C7272-P148

>  <name>  (2) 
NAVWXWKDBNZCHT-VWLOTQADSA-N

>  <original SMILES>  (2) 
CC[S@@](=O)(=Nc1ccn2cnnc2c1)NCc1ccc2c(c1)OCO2

>  <alias>  (2) 
None

>  <distance_score>  (2) 
0.956413

>  <ref_mols>  (2) 
7gp9-a,B0738a

>  <fragmenstein_outcome>  (2) 
acceptable

>  <score_inspiration>  (2) 
0.761038

>  <inchikey>  (2) 
NAVWXWKDBNZCHT-VWLOTQADSA-N

>  <fragmenstein_mode>  (2) 
expansion

>  <energy_score>  (2) 
-48.000253

>  <csv_name>  (2) 
D68EV3C_iter1_manuals_split1000_batch000.csv

$$$$
